96735
 OpenBabel12092211543D

 27 28  0  0  1  0  0  0  0  0999 V2000
    2.8050    3.0955   -0.5916 Br  0  0  0  0  0  0  0  0  0  0  0  0
   -1.2831   -2.4447   -4.2696 O   0  0  0  0  0  0  0  0  0  0  0  0
   -2.2606   -3.2756   -2.3919 O   0  0  0  0  0  0  0  0  0  0  0  0
    0.9914   -2.5586    0.3446 N   0  0  0  0  0  0  0  0  0  0  0  0
   -3.2108   -0.3574   -3.1114 N   0  0  0  0  0  0  0  0  0  0  0  0
   -0.5449   -1.2179   -0.5323 C   0  0  0  0  0  0  0  0  0  0  0  0
   -1.8190   -0.7222   -1.0920 C   0  0  0  0  0  0  0  0  0  0  0  0
    0.6466   -0.4639   -0.3410 C   0  0  0  0  0  0  0  0  0  0  0  0
   -1.9253   -0.8671   -2.6302 C   0  0  1  0  0  0  0  0  0  0  0  0
    1.5947   -1.3284    0.2104 C   0  0  0  0  0  0  0  0  0  0  0  0
   -0.3016   -2.5018   -0.1016 C   0  0  0  0  0  0  0  0  0  0  0  0
    1.0106    0.8754   -0.5845 C   0  0  0  0  0  0  0  0  0  0  0  0
    2.8938   -0.9191    0.5315 C   0  0  0  0  0  0  0  0  0  0  0  0
    2.3066    1.2990   -0.2683 C   0  0  0  0  0  0  0  0  0  0  0  0
   -1.8515   -2.3240   -3.0419 C   0  0  0  0  0  0  0  0  0  0  0  0
    3.2321    0.4139    0.2811 C   0  0  0  0  0  0  0  0  0  0  0  0
   -2.6546   -1.2508   -0.6134 H   0  0  0  0  0  0  0  0  0  0  0  0
   -1.9428    0.3359   -0.8236 H   0  0  0  0  0  0  0  0  0  0  0  0
   -1.1232   -0.3092   -3.1281 H   0  0  0  0  0  0  0  0  0  0  0  0
   -0.9312   -3.3803   -0.0712 H   0  0  0  0  0  0  0  0  0  0  0  0
    1.4392   -3.3838    0.7188 H   0  0  0  0  0  0  0  0  0  0  0  0
    0.2931    1.5661   -1.0187 H   0  0  0  0  0  0  0  0  0  0  0  0
    3.6149   -1.6075    0.9592 H   0  0  0  0  0  0  0  0  0  0  0  0
   -3.2264   -0.3768   -4.1307 H   0  0  0  0  0  0  0  0  0  0  0  0
   -3.3098    0.6216   -2.8450 H   0  0  0  0  0  0  0  0  0  0  0  0
    4.2384    0.7476    0.5253 H   0  0  0  0  0  0  0  0  0  0  0  0
   -1.2318   -3.3808   -4.5581 H   0  0  0  0  0  0  0  0  0  0  0  0
  1 14  1  0  0  0  0
  2 15  1  0  0  0  0
  2 27  1  0  0  0  0
  3 15  2  0  0  0  0
  4 10  1  0  0  0  0
  4 11  1  0  0  0  0
  4 21  1  0  0  0  0
  5  9  1  0  0  0  0
  5 24  1  0  0  0  0
  5 25  1  0  0  0  0
  6  7  1  0  0  0  0
  6  8  1  0  0  0  0
  6 11  2  0  0  0  0
  7  9  1  0  0  0  0
  7 17  1  0  0  0  0
  7 18  1  0  0  0  0
  8 10  2  0  0  0  0
  8 12  1  0  0  0  0
  9 15  1  0  0  0  0
  9 19  1  6  0  0  0
 10 13  1  0  0  0  0
 11 20  1  0  0  0  0
 12 14  2  0  0  0  0
 12 22  1  0  0  0  0
 13 16  2  0  0  0  0
 13 23  1  0  0  0  0
 14 16  1  0  0  0  0
 16 26  1  0  0  0  0
M  END
>  <PUBCHEM_COMPOUND_CID>
96735

>  <PUBCHEM_CONFORMER_RMSD>
0.6

>  <PUBCHEM_CONFORMER_DIVERSEORDER>
1
21
23
27
7
6
17
16
25
18
8
20
15
13
19
3
26
9
22
14
12
11
4
5
10
2
24

>  <PUBCHEM_MMFF94_PARTIAL_CHARGES>
23
1 -0.11
10 -0.15
11 -0.3
12 -0.15
13 -0.15
14 0.11
15 0.66
16 -0.15
2 -0.65
20 0.15
21 0.27
22 0.15
23 0.15
24 0.36
25 0.36
26 0.15
27 0.5
3 -0.57
4 0.03
5 -0.99
6 -0.18
7 0.18
9 0.33

>  <PUBCHEM_EFFECTIVE_ROTOR_COUNT>
3

>  <PUBCHEM_PHARMACOPHORE_FEATURES>
10
1 1 hydrophobe
1 2 acceptor
1 3 acceptor
1 4 cation
1 4 donor
1 5 cation
1 5 donor
3 2 3 15 anion
5 4 6 8 10 11 rings
6 8 10 12 13 14 16 rings

>  <PUBCHEM_HEAVY_ATOM_COUNT>
16

>  <PUBCHEM_ATOM_DEF_STEREO_COUNT>
0

>  <PUBCHEM_ATOM_UDEF_STEREO_COUNT>
1

>  <PUBCHEM_BOND_DEF_STEREO_COUNT>
0

>  <PUBCHEM_BOND_UDEF_STEREO_COUNT>
0

>  <PUBCHEM_ISOTOPIC_ATOM_COUNT>
0

>  <PUBCHEM_COMPONENT_COUNT>
1

>  <PUBCHEM_CACTVS_TAUTO_COUNT>
1

>  <PUBCHEM_CONFORMER_ID>
000179DF00000001

>  <PUBCHEM_MMFF94_ENERGY>
20.9886

>  <PUBCHEM_FEATURE_SELFOVERLAP>
50.892

>  <PUBCHEM_SHAPE_FINGERPRINT>
11471102 22 18113907017704346890
11640471 11 17845098359332862833
12403259 327 15647322104417206741
12491281 212 18263649618382218608
13140716 1 18189606327898569578
13618510 140 18409452526420472100
13764800 53 18048323532925062602
14787075 74 18124315167178597895
15490181 8 18412833503275010278
15775835 57 18201723929178119937
16945 1 18409454652334331470
192875 21 18339062822754813833
20510252 161 17617664697134019442
21524375 3 18272090525808676422
21665062 11 17834692495224876801
22094290 62 18410011057116016980
23419403 2 14064036600601634441
23557571 272 16485554645227557526
2748010 2 18192158298407538726
305870 269 18338518525844391474
4175511 71 18193564372126828886
474 4 18409165523688807169
526903 126 17838055166860279408
537710 114 18202278130768364809
63268167 104 18338793420873123914
6333272 397 18409730685624180515
7364860 26 18057606464616908766
74978 22 18337957904190356830
7832392 63 17908425753689332281

>  <PUBCHEM_SHAPE_MULTIPOLES>
313.51
5.41
2.92
1.01
0.7
0.2
-0.2
3.22
0.26
-1.3
0
0.39
0.19
-0.91

>  <PUBCHEM_SHAPE_SELFOVERLAP>
660.978

>  <PUBCHEM_SHAPE_VOLUME>
181.1

>  <PUBCHEM_COORDINATE_TYPE>
2
5
10

$$$$
96735
 OpenBabel12092211543D

 27 28  0  0  1  0  0  0  0  0999 V2000
    2.8050    3.0955   -0.5916 Br  0  0  0  0  0  0  0  0  0  0  0  0
   -5.1211    0.1740    0.2076 O   0  0  0  0  0  0  0  0  0  0  0  0
   -4.2242    0.6899   -1.8174 O   0  0  0  0  0  0  0  0  0  0  0  0
    0.9914   -2.5586    0.3446 N   0  0  0  0  0  0  0  0  0  0  0  0
   -3.1413   -1.1860    0.9536 N   0  0  0  0  0  0  0  0  0  0  0  0
   -0.5449   -1.2179   -0.5323 C   0  0  0  0  0  0  0  0  0  0  0  0
   -1.8190   -0.7222   -1.0920 C   0  0  0  0  0  0  0  0  0  0  0  0
    0.6466   -0.4639   -0.3410 C   0  0  0  0  0  0  0  0  0  0  0  0
   -2.7922   -0.1573   -0.0281 C   0  0  1  0  0  0  0  0  0  0  0  0
    1.5947   -1.3284    0.2104 C   0  0  0  0  0  0  0  0  0  0  0  0
   -0.3016   -2.5018   -0.1016 C   0  0  0  0  0  0  0  0  0  0  0  0
    1.0106    0.8754   -0.5845 C   0  0  0  0  0  0  0  0  0  0  0  0
    2.8938   -0.9191    0.5315 C   0  0  0  0  0  0  0  0  0  0  0  0
    2.3066    1.2990   -0.2683 C   0  0  0  0  0  0  0  0  0  0  0  0
   -4.0900    0.2935   -0.6684 C   0  0  0  0  0  0  0  0  0  0  0  0
    3.2321    0.4139    0.2811 C   0  0  0  0  0  0  0  0  0  0  0  0
   -1.6078    0.0494   -1.8449 H   0  0  0  0  0  0  0  0  0  0  0  0
   -2.3164   -1.5386   -1.6333 H   0  0  0  0  0  0  0  0  0  0  0  0
   -2.3378    0.6879    0.5027 H   0  0  0  0  0  0  0  0  0  0  0  0
   -0.9312   -3.3803   -0.0712 H   0  0  0  0  0  0  0  0  0  0  0  0
    1.4392   -3.3838    0.7188 H   0  0  0  0  0  0  0  0  0  0  0  0
    0.2931    1.5661   -1.0187 H   0  0  0  0  0  0  0  0  0  0  0  0
    3.6149   -1.6075    0.9592 H   0  0  0  0  0  0  0  0  0  0  0  0
   -3.7078   -0.7737    1.6943 H   0  0  0  0  0  0  0  0  0  0  0  0
   -2.2931   -1.5291    1.4031 H   0  0  0  0  0  0  0  0  0  0  0  0
    4.2384    0.7476    0.5253 H   0  0  0  0  0  0  0  0  0  0  0  0
   -5.9728    0.4549   -0.1898 H   0  0  0  0  0  0  0  0  0  0  0  0
  1 14  1  0  0  0  0
  2 15  1  0  0  0  0
  2 27  1  0  0  0  0
  3 15  2  0  0  0  0
  4 10  1  0  0  0  0
  4 11  1  0  0  0  0
  4 21  1  0  0  0  0
  5  9  1  0  0  0  0
  5 24  1  0  0  0  0
  5 25  1  0  0  0  0
  6  7  1  0  0  0  0
  6  8  1  0  0  0  0
  6 11  2  0  0  0  0
  7  9  1  0  0  0  0
  7 17  1  0  0  0  0
  7 18  1  0  0  0  0
  8 10  2  0  0  0  0
  8 12  1  0  0  0  0
  9 15  1  0  0  0  0
  9 19  1  1  0  0  0
 10 13  1  0  0  0  0
 11 20  1  0  0  0  0
 12 14  2  0  0  0  0
 12 22  1  0  0  0  0
 13 16  2  0  0  0  0
 13 23  1  0  0  0  0
 14 16  1  0  0  0  0
 16 26  1  0  0  0  0
M  END
>  <PUBCHEM_COMPOUND_CID>
96735

>  <PUBCHEM_CONFORMER_RMSD>
0.6

>  <PUBCHEM_CONFORMER_DIVERSEORDER>
1
21
23
27
7
6
17
16
25
18
8
20
15
13
19
3
26
9
22
14
12
11
4
5
10
2
24

>  <PUBCHEM_MMFF94_PARTIAL_CHARGES>
23
1 -0.11
10 -0.15
11 -0.3
12 -0.15
13 -0.15
14 0.11
15 0.66
16 -0.15
2 -0.65
20 0.15
21 0.27
22 0.15
23 0.15
24 0.36
25 0.36
26 0.15
27 0.5
3 -0.57
4 0.03
5 -0.99
6 -0.18
7 0.18
9 0.33

>  <PUBCHEM_EFFECTIVE_ROTOR_COUNT>
3

>  <PUBCHEM_PHARMACOPHORE_FEATURES>
10
1 1 hydrophobe
1 2 acceptor
1 3 acceptor
1 4 cation
1 4 donor
1 5 cation
1 5 donor
3 2 3 15 anion
5 4 6 8 10 11 rings
6 8 10 12 13 14 16 rings

>  <PUBCHEM_HEAVY_ATOM_COUNT>
16

>  <PUBCHEM_ATOM_DEF_STEREO_COUNT>
0

>  <PUBCHEM_ATOM_UDEF_STEREO_COUNT>
1

>  <PUBCHEM_BOND_DEF_STEREO_COUNT>
0

>  <PUBCHEM_BOND_UDEF_STEREO_COUNT>
0

>  <PUBCHEM_ISOTOPIC_ATOM_COUNT>
0

>  <PUBCHEM_COMPONENT_COUNT>
1

>  <PUBCHEM_CACTVS_TAUTO_COUNT>
1

>  <PUBCHEM_CONFORMER_ID>
000179DF00000001

>  <PUBCHEM_MMFF94_ENERGY>
20.9886

>  <PUBCHEM_FEATURE_SELFOVERLAP>
50.892

>  <PUBCHEM_SHAPE_FINGERPRINT>
11471102 22 18113907017704346890
11640471 11 17845098359332862833
12403259 327 15647322104417206741
12491281 212 18263649618382218608
13140716 1 18189606327898569578
13618510 140 18409452526420472100
13764800 53 18048323532925062602
14787075 74 18124315167178597895
15490181 8 18412833503275010278
15775835 57 18201723929178119937
16945 1 18409454652334331470
192875 21 18339062822754813833
20510252 161 17617664697134019442
21524375 3 18272090525808676422
21665062 11 17834692495224876801
22094290 62 18410011057116016980
23419403 2 14064036600601634441
23557571 272 16485554645227557526
2748010 2 18192158298407538726
305870 269 18338518525844391474
4175511 71 18193564372126828886
474 4 18409165523688807169
526903 126 17838055166860279408
537710 114 18202278130768364809
63268167 104 18338793420873123914
6333272 397 18409730685624180515
7364860 26 18057606464616908766
74978 22 18337957904190356830
7832392 63 17908425753689332281

>  <PUBCHEM_SHAPE_MULTIPOLES>
313.51
5.41
2.92
1.01
0.7
0.2
-0.2
3.22
0.26
-1.3
0
0.39
0.19
-0.91

>  <PUBCHEM_SHAPE_SELFOVERLAP>
660.978

>  <PUBCHEM_SHAPE_VOLUME>
181.1

>  <PUBCHEM_COORDINATE_TYPE>
2
5
10

$$$$
96735
 OpenBabel12092211543D

 27 28  0  0  1  0  0  0  0  0999 V2000
    2.8050    3.0955   -0.5916 Br  0  0  0  0  0  0  0  0  0  0  0  0
   -3.6490   -0.9711   -4.2449 O   0  0  0  0  0  0  0  0  0  0  0  0
   -3.8499    0.6381   -2.6507 O   0  0  0  0  0  0  0  0  0  0  0  0
    0.9914   -2.5586    0.3446 N   0  0  0  0  0  0  0  0  0  0  0  0
   -0.8586   -0.1176   -3.2966 N   0  0  0  0  0  0  0  0  0  0  0  0
   -0.5449   -1.2179   -0.5323 C   0  0  0  0  0  0  0  0  0  0  0  0
   -1.8190   -0.7222   -1.0920 C   0  0  0  0  0  0  0  0  0  0  0  0
    0.6466   -0.4639   -0.3410 C   0  0  0  0  0  0  0  0  0  0  0  0
   -1.9253   -0.8671   -2.6302 C   0  0  1  0  0  0  0  0  0  0  0  0
    1.5947   -1.3284    0.2104 C   0  0  0  0  0  0  0  0  0  0  0  0
   -0.3016   -2.5018   -0.1016 C   0  0  0  0  0  0  0  0  0  0  0  0
    1.0106    0.8754   -0.5845 C   0  0  0  0  0  0  0  0  0  0  0  0
    2.8938   -0.9191    0.5315 C   0  0  0  0  0  0  0  0  0  0  0  0
    2.3066    1.2990   -0.2683 C   0  0  0  0  0  0  0  0  0  0  0  0
   -3.2377   -0.3024   -3.1365 C   0  0  0  0  0  0  0  0  0  0  0  0
    3.2321    0.4139    0.2811 C   0  0  0  0  0  0  0  0  0  0  0  0
   -2.6546   -1.2508   -0.6134 H   0  0  0  0  0  0  0  0  0  0  0  0
   -1.9428    0.3359   -0.8236 H   0  0  0  0  0  0  0  0  0  0  0  0
   -1.8460   -1.9199   -2.9264 H   0  0  0  0  0  0  0  0  0  0  0  0
   -0.9312   -3.3803   -0.0712 H   0  0  0  0  0  0  0  0  0  0  0  0
    1.4392   -3.3838    0.7188 H   0  0  0  0  0  0  0  0  0  0  0  0
    0.2931    1.5661   -1.0187 H   0  0  0  0  0  0  0  0  0  0  0  0
    3.6149   -1.6075    0.9592 H   0  0  0  0  0  0  0  0  0  0  0  0
   -0.8894   -0.2975   -4.2997 H   0  0  0  0  0  0  0  0  0  0  0  0
    0.0474   -0.4570   -2.9755 H   0  0  0  0  0  0  0  0  0  0  0  0
    4.2384    0.7476    0.5253 H   0  0  0  0  0  0  0  0  0  0  0  0
   -4.4946   -0.6164   -4.5930 H   0  0  0  0  0  0  0  0  0  0  0  0
  1 14  1  0  0  0  0
  2 15  1  0  0  0  0
  2 27  1  0  0  0  0
  3 15  2  0  0  0  0
  4 10  1  0  0  0  0
  4 11  1  0  0  0  0
  4 21  1  0  0  0  0
  5  9  1  0  0  0  0
  5 24  1  0  0  0  0
  5 25  1  0  0  0  0
  6  7  1  0  0  0  0
  6  8  1  0  0  0  0
  6 11  2  0  0  0  0
  7  9  1  0  0  0  0
  7 17  1  0  0  0  0
  7 18  1  0  0  0  0
  8 10  2  0  0  0  0
  8 12  1  0  0  0  0
  9 15  1  0  0  0  0
  9 19  1  6  0  0  0
 10 13  1  0  0  0  0
 11 20  1  0  0  0  0
 12 14  2  0  0  0  0
 12 22  1  0  0  0  0
 13 16  2  0  0  0  0
 13 23  1  0  0  0  0
 14 16  1  0  0  0  0
 16 26  1  0  0  0  0
M  END
>  <PUBCHEM_COMPOUND_CID>
96735

>  <PUBCHEM_CONFORMER_RMSD>
0.6

>  <PUBCHEM_CONFORMER_DIVERSEORDER>
1
21
23
27
7
6
17
16
25
18
8
20
15
13
19
3
26
9
22
14
12
11
4
5
10
2
24

>  <PUBCHEM_MMFF94_PARTIAL_CHARGES>
23
1 -0.11
10 -0.15
11 -0.3
12 -0.15
13 -0.15
14 0.11
15 0.66
16 -0.15
2 -0.65
20 0.15
21 0.27
22 0.15
23 0.15
24 0.36
25 0.36
26 0.15
27 0.5
3 -0.57
4 0.03
5 -0.99
6 -0.18
7 0.18
9 0.33

>  <PUBCHEM_EFFECTIVE_ROTOR_COUNT>
3

>  <PUBCHEM_PHARMACOPHORE_FEATURES>
10
1 1 hydrophobe
1 2 acceptor
1 3 acceptor
1 4 cation
1 4 donor
1 5 cation
1 5 donor
3 2 3 15 anion
5 4 6 8 10 11 rings
6 8 10 12 13 14 16 rings

>  <PUBCHEM_HEAVY_ATOM_COUNT>
16

>  <PUBCHEM_ATOM_DEF_STEREO_COUNT>
0

>  <PUBCHEM_ATOM_UDEF_STEREO_COUNT>
1

>  <PUBCHEM_BOND_DEF_STEREO_COUNT>
0

>  <PUBCHEM_BOND_UDEF_STEREO_COUNT>
0

>  <PUBCHEM_ISOTOPIC_ATOM_COUNT>
0

>  <PUBCHEM_COMPONENT_COUNT>
1

>  <PUBCHEM_CACTVS_TAUTO_COUNT>
1

>  <PUBCHEM_CONFORMER_ID>
000179DF00000001

>  <PUBCHEM_MMFF94_ENERGY>
20.9886

>  <PUBCHEM_FEATURE_SELFOVERLAP>
50.892

>  <PUBCHEM_SHAPE_FINGERPRINT>
11471102 22 18113907017704346890
11640471 11 17845098359332862833
12403259 327 15647322104417206741
12491281 212 18263649618382218608
13140716 1 18189606327898569578
13618510 140 18409452526420472100
13764800 53 18048323532925062602
14787075 74 18124315167178597895
15490181 8 18412833503275010278
15775835 57 18201723929178119937
16945 1 18409454652334331470
192875 21 18339062822754813833
20510252 161 17617664697134019442
21524375 3 18272090525808676422
21665062 11 17834692495224876801
22094290 62 18410011057116016980
23419403 2 14064036600601634441
23557571 272 16485554645227557526
2748010 2 18192158298407538726
305870 269 18338518525844391474
4175511 71 18193564372126828886
474 4 18409165523688807169
526903 126 17838055166860279408
537710 114 18202278130768364809
63268167 104 18338793420873123914
6333272 397 18409730685624180515
7364860 26 18057606464616908766
74978 22 18337957904190356830
7832392 63 17908425753689332281

>  <PUBCHEM_SHAPE_MULTIPOLES>
313.51
5.41
2.92
1.01
0.7
0.2
-0.2
3.22
0.26
-1.3
0
0.39
0.19
-0.91

>  <PUBCHEM_SHAPE_SELFOVERLAP>
660.978

>  <PUBCHEM_SHAPE_VOLUME>
181.1

>  <PUBCHEM_COORDINATE_TYPE>
2
5
10

$$$$
96735
 OpenBabel12092211543D

 27 28  0  0  1  0  0  0  0  0999 V2000
    2.8050    3.0955   -0.5916 Br  0  0  0  0  0  0  0  0  0  0  0  0
   -4.2871   -0.9470   -2.5637 O   0  0  0  0  0  0  0  0  0  0  0  0
   -3.3643    0.5902   -3.9627 O   0  0  0  0  0  0  0  0  0  0  0  0
    0.9914   -2.5586    0.3446 N   0  0  0  0  0  0  0  0  0  0  0  0
   -0.8586   -0.1176   -3.2966 N   0  0  0  0  0  0  0  0  0  0  0  0
   -0.5449   -1.2179   -0.5323 C   0  0  0  0  0  0  0  0  0  0  0  0
   -1.8190   -0.7222   -1.0920 C   0  0  0  0  0  0  0  0  0  0  0  0
    0.6466   -0.4639   -0.3410 C   0  0  0  0  0  0  0  0  0  0  0  0
   -1.9253   -0.8671   -2.6302 C   0  0  1  0  0  0  0  0  0  0  0  0
    1.5947   -1.3284    0.2104 C   0  0  0  0  0  0  0  0  0  0  0  0
   -0.3016   -2.5018   -0.1016 C   0  0  0  0  0  0  0  0  0  0  0  0
    1.0106    0.8754   -0.5845 C   0  0  0  0  0  0  0  0  0  0  0  0
    2.8938   -0.9191    0.5315 C   0  0  0  0  0  0  0  0  0  0  0  0
    2.3066    1.2990   -0.2683 C   0  0  0  0  0  0  0  0  0  0  0  0
   -3.2377   -0.3024   -3.1365 C   0  0  0  0  0  0  0  0  0  0  0  0
    3.2321    0.4139    0.2811 C   0  0  0  0  0  0  0  0  0  0  0  0
   -2.6546   -1.2508   -0.6134 H   0  0  0  0  0  0  0  0  0  0  0  0
   -1.9428    0.3359   -0.8236 H   0  0  0  0  0  0  0  0  0  0  0  0
   -1.8460   -1.9199   -2.9264 H   0  0  0  0  0  0  0  0  0  0  0  0
   -0.9312   -3.3803   -0.0712 H   0  0  0  0  0  0  0  0  0  0  0  0
    1.4392   -3.3838    0.7188 H   0  0  0  0  0  0  0  0  0  0  0  0
    0.2931    1.5661   -1.0187 H   0  0  0  0  0  0  0  0  0  0  0  0
    3.6149   -1.6075    0.9592 H   0  0  0  0  0  0  0  0  0  0  0  0
   -0.8894   -0.2975   -4.2997 H   0  0  0  0  0  0  0  0  0  0  0  0
    0.0474   -0.4570   -2.9755 H   0  0  0  0  0  0  0  0  0  0  0  0
    4.2384    0.7476    0.5253 H   0  0  0  0  0  0  0  0  0  0  0  0
   -5.1474   -0.6006   -2.8834 H   0  0  0  0  0  0  0  0  0  0  0  0
  1 14  1  0  0  0  0
  2 15  1  0  0  0  0
  2 27  1  0  0  0  0
  3 15  2  0  0  0  0
  4 10  1  0  0  0  0
  4 11  1  0  0  0  0
  4 21  1  0  0  0  0
  5  9  1  0  0  0  0
  5 24  1  0  0  0  0
  5 25  1  0  0  0  0
  6  7  1  0  0  0  0
  6  8  1  0  0  0  0
  6 11  2  0  0  0  0
  7  9  1  0  0  0  0
  7 17  1  0  0  0  0
  7 18  1  0  0  0  0
  8 10  2  0  0  0  0
  8 12  1  0  0  0  0
  9 15  1  0  0  0  0
  9 19  1  6  0  0  0
 10 13  1  0  0  0  0
 11 20  1  0  0  0  0
 12 14  2  0  0  0  0
 12 22  1  0  0  0  0
 13 16  2  0  0  0  0
 13 23  1  0  0  0  0
 14 16  1  0  0  0  0
 16 26  1  0  0  0  0
M  END
>  <PUBCHEM_COMPOUND_CID>
96735

>  <PUBCHEM_CONFORMER_RMSD>
0.6

>  <PUBCHEM_CONFORMER_DIVERSEORDER>
1
21
23
27
7
6
17
16
25
18
8
20
15
13
19
3
26
9
22
14
12
11
4
5
10
2
24

>  <PUBCHEM_MMFF94_PARTIAL_CHARGES>
23
1 -0.11
10 -0.15
11 -0.3
12 -0.15
13 -0.15
14 0.11
15 0.66
16 -0.15
2 -0.65
20 0.15
21 0.27
22 0.15
23 0.15
24 0.36
25 0.36
26 0.15
27 0.5
3 -0.57
4 0.03
5 -0.99
6 -0.18
7 0.18
9 0.33

>  <PUBCHEM_EFFECTIVE_ROTOR_COUNT>
3

>  <PUBCHEM_PHARMACOPHORE_FEATURES>
10
1 1 hydrophobe
1 2 acceptor
1 3 acceptor
1 4 cation
1 4 donor
1 5 cation
1 5 donor
3 2 3 15 anion
5 4 6 8 10 11 rings
6 8 10 12 13 14 16 rings

>  <PUBCHEM_HEAVY_ATOM_COUNT>
16

>  <PUBCHEM_ATOM_DEF_STEREO_COUNT>
0

>  <PUBCHEM_ATOM_UDEF_STEREO_COUNT>
1

>  <PUBCHEM_BOND_DEF_STEREO_COUNT>
0

>  <PUBCHEM_BOND_UDEF_STEREO_COUNT>
0

>  <PUBCHEM_ISOTOPIC_ATOM_COUNT>
0

>  <PUBCHEM_COMPONENT_COUNT>
1

>  <PUBCHEM_CACTVS_TAUTO_COUNT>
1

>  <PUBCHEM_CONFORMER_ID>
000179DF00000001

>  <PUBCHEM_MMFF94_ENERGY>
20.9886

>  <PUBCHEM_FEATURE_SELFOVERLAP>
50.892

>  <PUBCHEM_SHAPE_FINGERPRINT>
11471102 22 18113907017704346890
11640471 11 17845098359332862833
12403259 327 15647322104417206741
12491281 212 18263649618382218608
13140716 1 18189606327898569578
13618510 140 18409452526420472100
13764800 53 18048323532925062602
14787075 74 18124315167178597895
15490181 8 18412833503275010278
15775835 57 18201723929178119937
16945 1 18409454652334331470
192875 21 18339062822754813833
20510252 161 17617664697134019442
21524375 3 18272090525808676422
21665062 11 17834692495224876801
22094290 62 18410011057116016980
23419403 2 14064036600601634441
23557571 272 16485554645227557526
2748010 2 18192158298407538726
305870 269 18338518525844391474
4175511 71 18193564372126828886
474 4 18409165523688807169
526903 126 17838055166860279408
537710 114 18202278130768364809
63268167 104 18338793420873123914
6333272 397 18409730685624180515
7364860 26 18057606464616908766
74978 22 18337957904190356830
7832392 63 17908425753689332281

>  <PUBCHEM_SHAPE_MULTIPOLES>
313.51
5.41
2.92
1.01
0.7
0.2
-0.2
3.22
0.26
-1.3
0
0.39
0.19
-0.91

>  <PUBCHEM_SHAPE_SELFOVERLAP>
660.978

>  <PUBCHEM_SHAPE_VOLUME>
181.1

>  <PUBCHEM_COORDINATE_TYPE>
2
5
10

$$$$
96735
 OpenBabel12092211543D

 27 28  0  0  1  0  0  0  0  0999 V2000
    2.8050    3.0955   -0.5916 Br  0  0  0  0  0  0  0  0  0  0  0  0
   -3.8545    1.2547   -1.5987 O   0  0  0  0  0  0  0  0  0  0  0  0
   -5.2084   -0.1147   -0.3891 O   0  0  0  0  0  0  0  0  0  0  0  0
    0.9914   -2.5586    0.3446 N   0  0  0  0  0  0  0  0  0  0  0  0
   -3.1413   -1.1860    0.9536 N   0  0  0  0  0  0  0  0  0  0  0  0
   -0.5449   -1.2179   -0.5323 C   0  0  0  0  0  0  0  0  0  0  0  0
   -1.8190   -0.7222   -1.0920 C   0  0  0  0  0  0  0  0  0  0  0  0
    0.6466   -0.4639   -0.3410 C   0  0  0  0  0  0  0  0  0  0  0  0
   -2.7922   -0.1573   -0.0281 C   0  0  1  0  0  0  0  0  0  0  0  0
    1.5947   -1.3284    0.2104 C   0  0  0  0  0  0  0  0  0  0  0  0
   -0.3016   -2.5018   -0.1016 C   0  0  0  0  0  0  0  0  0  0  0  0
    1.0106    0.8754   -0.5845 C   0  0  0  0  0  0  0  0  0  0  0  0
    2.8938   -0.9191    0.5315 C   0  0  0  0  0  0  0  0  0  0  0  0
    2.3066    1.2990   -0.2683 C   0  0  0  0  0  0  0  0  0  0  0  0
   -4.0900    0.2935   -0.6684 C   0  0  0  0  0  0  0  0  0  0  0  0
    3.2321    0.4139    0.2811 C   0  0  0  0  0  0  0  0  0  0  0  0
   -1.6078    0.0494   -1.8449 H   0  0  0  0  0  0  0  0  0  0  0  0
   -2.3164   -1.5386   -1.6333 H   0  0  0  0  0  0  0  0  0  0  0  0
   -2.3378    0.6879    0.5027 H   0  0  0  0  0  0  0  0  0  0  0  0
   -0.9312   -3.3803   -0.0712 H   0  0  0  0  0  0  0  0  0  0  0  0
    1.4392   -3.3838    0.7188 H   0  0  0  0  0  0  0  0  0  0  0  0
    0.2931    1.5661   -1.0187 H   0  0  0  0  0  0  0  0  0  0  0  0
    3.6149   -1.6075    0.9592 H   0  0  0  0  0  0  0  0  0  0  0  0
   -3.7078   -0.7737    1.6943 H   0  0  0  0  0  0  0  0  0  0  0  0
   -2.2931   -1.5291    1.4031 H   0  0  0  0  0  0  0  0  0  0  0  0
    4.2384    0.7476    0.5253 H   0  0  0  0  0  0  0  0  0  0  0  0
   -4.6834    1.5656   -2.0210 H   0  0  0  0  0  0  0  0  0  0  0  0
  1 14  1  0  0  0  0
  2 15  1  0  0  0  0
  2 27  1  0  0  0  0
  3 15  2  0  0  0  0
  4 10  1  0  0  0  0
  4 11  1  0  0  0  0
  4 21  1  0  0  0  0
  5  9  1  0  0  0  0
  5 24  1  0  0  0  0
  5 25  1  0  0  0  0
  6  7  1  0  0  0  0
  6  8  1  0  0  0  0
  6 11  2  0  0  0  0
  7  9  1  0  0  0  0
  7 17  1  0  0  0  0
  7 18  1  0  0  0  0
  8 10  2  0  0  0  0
  8 12  1  0  0  0  0
  9 15  1  0  0  0  0
  9 19  1  1  0  0  0
 10 13  1  0  0  0  0
 11 20  1  0  0  0  0
 12 14  2  0  0  0  0
 12 22  1  0  0  0  0
 13 16  2  0  0  0  0
 13 23  1  0  0  0  0
 14 16  1  0  0  0  0
 16 26  1  0  0  0  0
M  END
>  <PUBCHEM_COMPOUND_CID>
96735

>  <PUBCHEM_CONFORMER_RMSD>
0.6

>  <PUBCHEM_CONFORMER_DIVERSEORDER>
1
21
23
27
7
6
17
16
25
18
8
20
15
13
19
3
26
9
22
14
12
11
4
5
10
2
24

>  <PUBCHEM_MMFF94_PARTIAL_CHARGES>
23
1 -0.11
10 -0.15
11 -0.3
12 -0.15
13 -0.15
14 0.11
15 0.66
16 -0.15
2 -0.65
20 0.15
21 0.27
22 0.15
23 0.15
24 0.36
25 0.36
26 0.15
27 0.5
3 -0.57
4 0.03
5 -0.99
6 -0.18
7 0.18
9 0.33

>  <PUBCHEM_EFFECTIVE_ROTOR_COUNT>
3

>  <PUBCHEM_PHARMACOPHORE_FEATURES>
10
1 1 hydrophobe
1 2 acceptor
1 3 acceptor
1 4 cation
1 4 donor
1 5 cation
1 5 donor
3 2 3 15 anion
5 4 6 8 10 11 rings
6 8 10 12 13 14 16 rings

>  <PUBCHEM_HEAVY_ATOM_COUNT>
16

>  <PUBCHEM_ATOM_DEF_STEREO_COUNT>
0

>  <PUBCHEM_ATOM_UDEF_STEREO_COUNT>
1

>  <PUBCHEM_BOND_DEF_STEREO_COUNT>
0

>  <PUBCHEM_BOND_UDEF_STEREO_COUNT>
0

>  <PUBCHEM_ISOTOPIC_ATOM_COUNT>
0

>  <PUBCHEM_COMPONENT_COUNT>
1

>  <PUBCHEM_CACTVS_TAUTO_COUNT>
1

>  <PUBCHEM_CONFORMER_ID>
000179DF00000001

>  <PUBCHEM_MMFF94_ENERGY>
20.9886

>  <PUBCHEM_FEATURE_SELFOVERLAP>
50.892

>  <PUBCHEM_SHAPE_FINGERPRINT>
11471102 22 18113907017704346890
11640471 11 17845098359332862833
12403259 327 15647322104417206741
12491281 212 18263649618382218608
13140716 1 18189606327898569578
13618510 140 18409452526420472100
13764800 53 18048323532925062602
14787075 74 18124315167178597895
15490181 8 18412833503275010278
15775835 57 18201723929178119937
16945 1 18409454652334331470
192875 21 18339062822754813833
20510252 161 17617664697134019442
21524375 3 18272090525808676422
21665062 11 17834692495224876801
22094290 62 18410011057116016980
23419403 2 14064036600601634441
23557571 272 16485554645227557526
2748010 2 18192158298407538726
305870 269 18338518525844391474
4175511 71 18193564372126828886
474 4 18409165523688807169
526903 126 17838055166860279408
537710 114 18202278130768364809
63268167 104 18338793420873123914
6333272 397 18409730685624180515
7364860 26 18057606464616908766
74978 22 18337957904190356830
7832392 63 17908425753689332281

>  <PUBCHEM_SHAPE_MULTIPOLES>
313.51
5.41
2.92
1.01
0.7
0.2
-0.2
3.22
0.26
-1.3
0
0.39
0.19
-0.91

>  <PUBCHEM_SHAPE_SELFOVERLAP>
660.978

>  <PUBCHEM_SHAPE_VOLUME>
181.1

>  <PUBCHEM_COORDINATE_TYPE>
2
5
10

$$$$
96735
 OpenBabel12092211543D

 27 28  0  0  1  0  0  0  0  0999 V2000
    2.8050    3.0955   -0.5916 Br  0  0  0  0  0  0  0  0  0  0  0  0
   -2.7878   -0.8232    2.2305 O   0  0  0  0  0  0  0  0  0  0  0  0
   -2.6497    1.1877    1.1776 O   0  0  0  0  0  0  0  0  0  0  0  0
    0.9914   -2.5586    0.3446 N   0  0  0  0  0  0  0  0  0  0  0  0
   -4.2436   -0.3380   -0.7430 N   0  0  0  0  0  0  0  0  0  0  0  0
   -0.5449   -1.2179   -0.5323 C   0  0  0  0  0  0  0  0  0  0  0  0
   -1.8190   -0.7222   -1.0920 C   0  0  0  0  0  0  0  0  0  0  0  0
    0.6466   -0.4639   -0.3410 C   0  0  0  0  0  0  0  0  0  0  0  0
   -3.0197   -0.8480   -0.1221 C   0  0  1  0  0  0  0  0  0  0  0  0
    1.5947   -1.3284    0.2104 C   0  0  0  0  0  0  0  0  0  0  0  0
   -0.3016   -2.5018   -0.1016 C   0  0  0  0  0  0  0  0  0  0  0  0
    1.0106    0.8754   -0.5845 C   0  0  0  0  0  0  0  0  0  0  0  0
    2.8938   -0.9191    0.5315 C   0  0  0  0  0  0  0  0  0  0  0  0
    2.3066    1.2990   -0.2683 C   0  0  0  0  0  0  0  0  0  0  0  0
   -2.7905   -0.0262    1.1307 C   0  0  0  0  0  0  0  0  0  0  0  0
    3.2321    0.4139    0.2811 C   0  0  0  0  0  0  0  0  0  0  0  0
   -1.6977    0.3270   -1.3943 H   0  0  0  0  0  0  0  0  0  0  0  0
   -2.0459   -1.2739   -2.0146 H   0  0  0  0  0  0  0  0  0  0  0  0
   -3.1837   -1.8956    0.1574 H   0  0  0  0  0  0  0  0  0  0  0  0
   -0.9312   -3.3803   -0.0712 H   0  0  0  0  0  0  0  0  0  0  0  0
    1.4392   -3.3838    0.7188 H   0  0  0  0  0  0  0  0  0  0  0  0
    0.2931    1.5661   -1.0187 H   0  0  0  0  0  0  0  0  0  0  0  0
    3.6149   -1.6075    0.9592 H   0  0  0  0  0  0  0  0  0  0  0  0
   -5.0375   -0.5116   -0.1273 H   0  0  0  0  0  0  0  0  0  0  0  0
   -4.4314   -0.8562   -1.6006 H   0  0  0  0  0  0  0  0  0  0  0  0
    4.2384    0.7476    0.5253 H   0  0  0  0  0  0  0  0  0  0  0  0
   -2.6474   -0.3092    3.0541 H   0  0  0  0  0  0  0  0  0  0  0  0
  1 14  1  0  0  0  0
  2 15  1  0  0  0  0
  2 27  1  0  0  0  0
  3 15  2  0  0  0  0
  4 10  1  0  0  0  0
  4 11  1  0  0  0  0
  4 21  1  0  0  0  0
  5  9  1  0  0  0  0
  5 24  1  0  0  0  0
  5 25  1  0  0  0  0
  6  7  1  0  0  0  0
  6  8  1  0  0  0  0
  6 11  2  0  0  0  0
  7  9  1  0  0  0  0
  7 17  1  0  0  0  0
  7 18  1  0  0  0  0
  8 10  2  0  0  0  0
  8 12  1  0  0  0  0
  9 15  1  0  0  0  0
  9 19  1  1  0  0  0
 10 13  1  0  0  0  0
 11 20  1  0  0  0  0
 12 14  2  0  0  0  0
 12 22  1  0  0  0  0
 13 16  2  0  0  0  0
 13 23  1  0  0  0  0
 14 16  1  0  0  0  0
 16 26  1  0  0  0  0
M  END
>  <PUBCHEM_COMPOUND_CID>
96735

>  <PUBCHEM_CONFORMER_RMSD>
0.6

>  <PUBCHEM_CONFORMER_DIVERSEORDER>
1
21
23
27
7
6
17
16
25
18
8
20
15
13
19
3
26
9
22
14
12
11
4
5
10
2
24

>  <PUBCHEM_MMFF94_PARTIAL_CHARGES>
23
1 -0.11
10 -0.15
11 -0.3
12 -0.15
13 -0.15
14 0.11
15 0.66
16 -0.15
2 -0.65
20 0.15
21 0.27
22 0.15
23 0.15
24 0.36
25 0.36
26 0.15
27 0.5
3 -0.57
4 0.03
5 -0.99
6 -0.18
7 0.18
9 0.33

>  <PUBCHEM_EFFECTIVE_ROTOR_COUNT>
3

>  <PUBCHEM_PHARMACOPHORE_FEATURES>
10
1 1 hydrophobe
1 2 acceptor
1 3 acceptor
1 4 cation
1 4 donor
1 5 cation
1 5 donor
3 2 3 15 anion
5 4 6 8 10 11 rings
6 8 10 12 13 14 16 rings

>  <PUBCHEM_HEAVY_ATOM_COUNT>
16

>  <PUBCHEM_ATOM_DEF_STEREO_COUNT>
0

>  <PUBCHEM_ATOM_UDEF_STEREO_COUNT>
1

>  <PUBCHEM_BOND_DEF_STEREO_COUNT>
0

>  <PUBCHEM_BOND_UDEF_STEREO_COUNT>
0

>  <PUBCHEM_ISOTOPIC_ATOM_COUNT>
0

>  <PUBCHEM_COMPONENT_COUNT>
1

>  <PUBCHEM_CACTVS_TAUTO_COUNT>
1

>  <PUBCHEM_CONFORMER_ID>
000179DF00000001

>  <PUBCHEM_MMFF94_ENERGY>
20.9886

>  <PUBCHEM_FEATURE_SELFOVERLAP>
50.892

>  <PUBCHEM_SHAPE_FINGERPRINT>
11471102 22 18113907017704346890
11640471 11 17845098359332862833
12403259 327 15647322104417206741
12491281 212 18263649618382218608
13140716 1 18189606327898569578
13618510 140 18409452526420472100
13764800 53 18048323532925062602
14787075 74 18124315167178597895
15490181 8 18412833503275010278
15775835 57 18201723929178119937
16945 1 18409454652334331470
192875 21 18339062822754813833
20510252 161 17617664697134019442
21524375 3 18272090525808676422
21665062 11 17834692495224876801
22094290 62 18410011057116016980
23419403 2 14064036600601634441
23557571 272 16485554645227557526
2748010 2 18192158298407538726
305870 269 18338518525844391474
4175511 71 18193564372126828886
474 4 18409165523688807169
526903 126 17838055166860279408
537710 114 18202278130768364809
63268167 104 18338793420873123914
6333272 397 18409730685624180515
7364860 26 18057606464616908766
74978 22 18337957904190356830
7832392 63 17908425753689332281

>  <PUBCHEM_SHAPE_MULTIPOLES>
313.51
5.41
2.92
1.01
0.7
0.2
-0.2
3.22
0.26
-1.3
0
0.39
0.19
-0.91

>  <PUBCHEM_SHAPE_SELFOVERLAP>
660.978

>  <PUBCHEM_SHAPE_VOLUME>
181.1

>  <PUBCHEM_COORDINATE_TYPE>
2
5
10

$$$$
96735
 OpenBabel12092211543D

 27 28  0  0  1  0  0  0  0  0999 V2000
    2.8050    3.0955   -0.5916 Br  0  0  0  0  0  0  0  0  0  0  0  0
   -0.0616   -0.9280   -4.0681 O   0  0  0  0  0  0  0  0  0  0  0  0
   -1.8463   -2.2982   -3.7385 O   0  0  0  0  0  0  0  0  0  0  0  0
    0.9914   -2.5586    0.3446 N   0  0  0  0  0  0  0  0  0  0  0  0
   -2.9959    0.2947   -3.0230 N   0  0  0  0  0  0  0  0  0  0  0  0
   -0.5449   -1.2179   -0.5323 C   0  0  0  0  0  0  0  0  0  0  0  0
   -1.8190   -0.7222   -1.0920 C   0  0  0  0  0  0  0  0  0  0  0  0
    0.6466   -0.4639   -0.3410 C   0  0  0  0  0  0  0  0  0  0  0  0
   -1.6979   -0.1764   -2.5362 C   0  0  1  0  0  0  0  0  0  0  0  0
    1.5947   -1.3284    0.2104 C   0  0  0  0  0  0  0  0  0  0  0  0
   -0.3016   -2.5018   -0.1016 C   0  0  0  0  0  0  0  0  0  0  0  0
    1.0106    0.8754   -0.5845 C   0  0  0  0  0  0  0  0  0  0  0  0
    2.8938   -0.9191    0.5315 C   0  0  0  0  0  0  0  0  0  0  0  0
    2.3066    1.2990   -0.2683 C   0  0  0  0  0  0  0  0  0  0  0  0
   -1.2430   -1.2644   -3.4885 C   0  0  0  0  0  0  0  0  0  0  0  0
    3.2321    0.4139    0.2811 C   0  0  0  0  0  0  0  0  0  0  0  0
   -2.5647   -1.5284   -1.0640 H   0  0  0  0  0  0  0  0  0  0  0  0
   -2.2133    0.0712   -0.4423 H   0  0  0  0  0  0  0  0  0  0  0  0
   -0.9889    0.6592   -2.5762 H   0  0  0  0  0  0  0  0  0  0  0  0
   -0.9312   -3.3803   -0.0712 H   0  0  0  0  0  0  0  0  0  0  0  0
    1.4392   -3.3838    0.7188 H   0  0  0  0  0  0  0  0  0  0  0  0
    0.2931    1.5661   -1.0187 H   0  0  0  0  0  0  0  0  0  0  0  0
    3.6149   -1.6075    0.9592 H   0  0  0  0  0  0  0  0  0  0  0  0
   -2.8801    0.7322   -3.9367 H   0  0  0  0  0  0  0  0  0  0  0  0
   -3.3480    1.0230   -2.4027 H   0  0  0  0  0  0  0  0  0  0  0  0
    4.2384    0.7476    0.5253 H   0  0  0  0  0  0  0  0  0  0  0  0
    0.2476   -1.6169   -4.6941 H   0  0  0  0  0  0  0  0  0  0  0  0
  1 14  1  0  0  0  0
  2 15  1  0  0  0  0
  2 27  1  0  0  0  0
  3 15  2  0  0  0  0
  4 10  1  0  0  0  0
  4 11  1  0  0  0  0
  4 21  1  0  0  0  0
  5  9  1  0  0  0  0
  5 24  1  0  0  0  0
  5 25  1  0  0  0  0
  6  7  1  0  0  0  0
  6  8  1  0  0  0  0
  6 11  2  0  0  0  0
  7  9  1  0  0  0  0
  7 17  1  0  0  0  0
  7 18  1  0  0  0  0
  8 10  2  0  0  0  0
  8 12  1  0  0  0  0
  9 15  1  0  0  0  0
  9 19  1  6  0  0  0
 10 13  1  0  0  0  0
 11 20  1  0  0  0  0
 12 14  2  0  0  0  0
 12 22  1  0  0  0  0
 13 16  2  0  0  0  0
 13 23  1  0  0  0  0
 14 16  1  0  0  0  0
 16 26  1  0  0  0  0
M  END
>  <PUBCHEM_COMPOUND_CID>
96735

>  <PUBCHEM_CONFORMER_RMSD>
0.6

>  <PUBCHEM_CONFORMER_DIVERSEORDER>
1
21
23
27
7
6
17
16
25
18
8
20
15
13
19
3
26
9
22
14
12
11
4
5
10
2
24

>  <PUBCHEM_MMFF94_PARTIAL_CHARGES>
23
1 -0.11
10 -0.15
11 -0.3
12 -0.15
13 -0.15
14 0.11
15 0.66
16 -0.15
2 -0.65
20 0.15
21 0.27
22 0.15
23 0.15
24 0.36
25 0.36
26 0.15
27 0.5
3 -0.57
4 0.03
5 -0.99
6 -0.18
7 0.18
9 0.33

>  <PUBCHEM_EFFECTIVE_ROTOR_COUNT>
3

>  <PUBCHEM_PHARMACOPHORE_FEATURES>
10
1 1 hydrophobe
1 2 acceptor
1 3 acceptor
1 4 cation
1 4 donor
1 5 cation
1 5 donor
3 2 3 15 anion
5 4 6 8 10 11 rings
6 8 10 12 13 14 16 rings

>  <PUBCHEM_HEAVY_ATOM_COUNT>
16

>  <PUBCHEM_ATOM_DEF_STEREO_COUNT>
0

>  <PUBCHEM_ATOM_UDEF_STEREO_COUNT>
1

>  <PUBCHEM_BOND_DEF_STEREO_COUNT>
0

>  <PUBCHEM_BOND_UDEF_STEREO_COUNT>
0

>  <PUBCHEM_ISOTOPIC_ATOM_COUNT>
0

>  <PUBCHEM_COMPONENT_COUNT>
1

>  <PUBCHEM_CACTVS_TAUTO_COUNT>
1

>  <PUBCHEM_CONFORMER_ID>
000179DF00000001

>  <PUBCHEM_MMFF94_ENERGY>
20.9886

>  <PUBCHEM_FEATURE_SELFOVERLAP>
50.892

>  <PUBCHEM_SHAPE_FINGERPRINT>
11471102 22 18113907017704346890
11640471 11 17845098359332862833
12403259 327 15647322104417206741
12491281 212 18263649618382218608
13140716 1 18189606327898569578
13618510 140 18409452526420472100
13764800 53 18048323532925062602
14787075 74 18124315167178597895
15490181 8 18412833503275010278
15775835 57 18201723929178119937
16945 1 18409454652334331470
192875 21 18339062822754813833
20510252 161 17617664697134019442
21524375 3 18272090525808676422
21665062 11 17834692495224876801
22094290 62 18410011057116016980
23419403 2 14064036600601634441
23557571 272 16485554645227557526
2748010 2 18192158298407538726
305870 269 18338518525844391474
4175511 71 18193564372126828886
474 4 18409165523688807169
526903 126 17838055166860279408
537710 114 18202278130768364809
63268167 104 18338793420873123914
6333272 397 18409730685624180515
7364860 26 18057606464616908766
74978 22 18337957904190356830
7832392 63 17908425753689332281

>  <PUBCHEM_SHAPE_MULTIPOLES>
313.51
5.41
2.92
1.01
0.7
0.2
-0.2
3.22
0.26
-1.3
0
0.39
0.19
-0.91

>  <PUBCHEM_SHAPE_SELFOVERLAP>
660.978

>  <PUBCHEM_SHAPE_VOLUME>
181.1

>  <PUBCHEM_COORDINATE_TYPE>
2
5
10

$$$$
96735
 OpenBabel12092211543D

 27 28  0  0  1  0  0  0  0  0999 V2000
    2.8050    3.0955   -0.5916 Br  0  0  0  0  0  0  0  0  0  0  0  0
   -1.4758    0.6287    1.7715 O   0  0  0  0  0  0  0  0  0  0  0  0
   -2.3112    2.2062    0.3625 O   0  0  0  0  0  0  0  0  0  0  0  0
    0.9914   -2.5586    0.3446 N   0  0  0  0  0  0  0  0  0  0  0  0
   -4.0287    0.3142   -0.6547 N   0  0  0  0  0  0  0  0  0  0  0  0
   -0.5449   -1.2179   -0.5323 C   0  0  0  0  0  0  0  0  0  0  0  0
   -1.8190   -0.7222   -1.0920 C   0  0  0  0  0  0  0  0  0  0  0  0
    0.6466   -0.4639   -0.3410 C   0  0  0  0  0  0  0  0  0  0  0  0
   -2.7922   -0.1573   -0.0281 C   0  0  1  0  0  0  0  0  0  0  0  0
    1.5947   -1.3284    0.2104 C   0  0  0  0  0  0  0  0  0  0  0  0
   -0.3016   -2.5018   -0.1016 C   0  0  0  0  0  0  0  0  0  0  0  0
    1.0106    0.8754   -0.5845 C   0  0  0  0  0  0  0  0  0  0  0  0
    2.8938   -0.9191    0.5315 C   0  0  0  0  0  0  0  0  0  0  0  0
    2.3066    1.2990   -0.2683 C   0  0  0  0  0  0  0  0  0  0  0  0
   -2.1820    1.0334    0.6841 C   0  0  0  0  0  0  0  0  0  0  0  0
    3.2321    0.4139    0.2811 C   0  0  0  0  0  0  0  0  0  0  0  0
   -1.6078    0.0494   -1.8449 H   0  0  0  0  0  0  0  0  0  0  0  0
   -2.3164   -1.5386   -1.6333 H   0  0  0  0  0  0  0  0  0  0  0  0
   -3.0494   -0.9272    0.7093 H   0  0  0  0  0  0  0  0  0  0  0  0
   -0.9312   -3.3803   -0.0712 H   0  0  0  0  0  0  0  0  0  0  0  0
    1.4392   -3.3838    0.7188 H   0  0  0  0  0  0  0  0  0  0  0  0
    0.2931    1.5661   -1.0187 H   0  0  0  0  0  0  0  0  0  0  0  0
    3.6149   -1.6075    0.9592 H   0  0  0  0  0  0  0  0  0  0  0  0
   -4.6912    0.5974    0.0667 H   0  0  0  0  0  0  0  0  0  0  0  0
   -4.4696   -0.4547   -1.1582 H   0  0  0  0  0  0  0  0  0  0  0  0
    4.2384    0.7476    0.5253 H   0  0  0  0  0  0  0  0  0  0  0  0
   -1.0775    1.3859    2.2512 H   0  0  0  0  0  0  0  0  0  0  0  0
  1 14  1  0  0  0  0
  2 15  1  0  0  0  0
  2 27  1  0  0  0  0
  3 15  2  0  0  0  0
  4 10  1  0  0  0  0
  4 11  1  0  0  0  0
  4 21  1  0  0  0  0
  5  9  1  0  0  0  0
  5 24  1  0  0  0  0
  5 25  1  0  0  0  0
  6  7  1  0  0  0  0
  6  8  1  0  0  0  0
  6 11  2  0  0  0  0
  7  9  1  0  0  0  0
  7 17  1  0  0  0  0
  7 18  1  0  0  0  0
  8 10  2  0  0  0  0
  8 12  1  0  0  0  0
  9 15  1  0  0  0  0
  9 19  1  1  0  0  0
 10 13  1  0  0  0  0
 11 20  1  0  0  0  0
 12 14  2  0  0  0  0
 12 22  1  0  0  0  0
 13 16  2  0  0  0  0
 13 23  1  0  0  0  0
 14 16  1  0  0  0  0
 16 26  1  0  0  0  0
M  END
>  <PUBCHEM_COMPOUND_CID>
96735

>  <PUBCHEM_CONFORMER_RMSD>
0.6

>  <PUBCHEM_CONFORMER_DIVERSEORDER>
1
21
23
27
7
6
17
16
25
18
8
20
15
13
19
3
26
9
22
14
12
11
4
5
10
2
24

>  <PUBCHEM_MMFF94_PARTIAL_CHARGES>
23
1 -0.11
10 -0.15
11 -0.3
12 -0.15
13 -0.15
14 0.11
15 0.66
16 -0.15
2 -0.65
20 0.15
21 0.27
22 0.15
23 0.15
24 0.36
25 0.36
26 0.15
27 0.5
3 -0.57
4 0.03
5 -0.99
6 -0.18
7 0.18
9 0.33

>  <PUBCHEM_EFFECTIVE_ROTOR_COUNT>
3

>  <PUBCHEM_PHARMACOPHORE_FEATURES>
10
1 1 hydrophobe
1 2 acceptor
1 3 acceptor
1 4 cation
1 4 donor
1 5 cation
1 5 donor
3 2 3 15 anion
5 4 6 8 10 11 rings
6 8 10 12 13 14 16 rings

>  <PUBCHEM_HEAVY_ATOM_COUNT>
16

>  <PUBCHEM_ATOM_DEF_STEREO_COUNT>
0

>  <PUBCHEM_ATOM_UDEF_STEREO_COUNT>
1

>  <PUBCHEM_BOND_DEF_STEREO_COUNT>
0

>  <PUBCHEM_BOND_UDEF_STEREO_COUNT>
0

>  <PUBCHEM_ISOTOPIC_ATOM_COUNT>
0

>  <PUBCHEM_COMPONENT_COUNT>
1

>  <PUBCHEM_CACTVS_TAUTO_COUNT>
1

>  <PUBCHEM_CONFORMER_ID>
000179DF00000001

>  <PUBCHEM_MMFF94_ENERGY>
20.9886

>  <PUBCHEM_FEATURE_SELFOVERLAP>
50.892

>  <PUBCHEM_SHAPE_FINGERPRINT>
11471102 22 18113907017704346890
11640471 11 17845098359332862833
12403259 327 15647322104417206741
12491281 212 18263649618382218608
13140716 1 18189606327898569578
13618510 140 18409452526420472100
13764800 53 18048323532925062602
14787075 74 18124315167178597895
15490181 8 18412833503275010278
15775835 57 18201723929178119937
16945 1 18409454652334331470
192875 21 18339062822754813833
20510252 161 17617664697134019442
21524375 3 18272090525808676422
21665062 11 17834692495224876801
22094290 62 18410011057116016980
23419403 2 14064036600601634441
23557571 272 16485554645227557526
2748010 2 18192158298407538726
305870 269 18338518525844391474
4175511 71 18193564372126828886
474 4 18409165523688807169
526903 126 17838055166860279408
537710 114 18202278130768364809
63268167 104 18338793420873123914
6333272 397 18409730685624180515
7364860 26 18057606464616908766
74978 22 18337957904190356830
7832392 63 17908425753689332281

>  <PUBCHEM_SHAPE_MULTIPOLES>
313.51
5.41
2.92
1.01
0.7
0.2
-0.2
3.22
0.26
-1.3
0
0.39
0.19
-0.91

>  <PUBCHEM_SHAPE_SELFOVERLAP>
660.978

>  <PUBCHEM_SHAPE_VOLUME>
181.1

>  <PUBCHEM_COORDINATE_TYPE>
2
5
10

$$$$
96735
 OpenBabel12092211543D

 27 28  0  0  1  0  0  0  0  0999 V2000
    2.8050    3.0955   -0.5916 Br  0  0  0  0  0  0  0  0  0  0  0  0
   -4.7087   -0.7501   -1.2790 O   0  0  0  0  0  0  0  0  0  0  0  0
   -4.5306    1.4343   -0.6723 O   0  0  0  0  0  0  0  0  0  0  0  0
    0.9914   -2.5586    0.3446 N   0  0  0  0  0  0  0  0  0  0  0  0
   -3.1413   -1.1860    0.9536 N   0  0  0  0  0  0  0  0  0  0  0  0
   -0.5449   -1.2179   -0.5323 C   0  0  0  0  0  0  0  0  0  0  0  0
   -1.8190   -0.7222   -1.0920 C   0  0  0  0  0  0  0  0  0  0  0  0
    0.6466   -0.4639   -0.3410 C   0  0  0  0  0  0  0  0  0  0  0  0
   -2.7922   -0.1573   -0.0281 C   0  0  1  0  0  0  0  0  0  0  0  0
    1.5947   -1.3284    0.2104 C   0  0  0  0  0  0  0  0  0  0  0  0
   -0.3016   -2.5018   -0.1016 C   0  0  0  0  0  0  0  0  0  0  0  0
    1.0106    0.8754   -0.5845 C   0  0  0  0  0  0  0  0  0  0  0  0
    2.8938   -0.9191    0.5315 C   0  0  0  0  0  0  0  0  0  0  0  0
    2.3066    1.2990   -0.2683 C   0  0  0  0  0  0  0  0  0  0  0  0
   -4.0900    0.2935   -0.6684 C   0  0  0  0  0  0  0  0  0  0  0  0
    3.2321    0.4139    0.2811 C   0  0  0  0  0  0  0  0  0  0  0  0
   -1.6078    0.0494   -1.8449 H   0  0  0  0  0  0  0  0  0  0  0  0
   -2.3164   -1.5386   -1.6333 H   0  0  0  0  0  0  0  0  0  0  0  0
   -2.3378    0.6879    0.5027 H   0  0  0  0  0  0  0  0  0  0  0  0
   -0.9312   -3.3803   -0.0712 H   0  0  0  0  0  0  0  0  0  0  0  0
    1.4392   -3.3838    0.7188 H   0  0  0  0  0  0  0  0  0  0  0  0
    0.2931    1.5661   -1.0187 H   0  0  0  0  0  0  0  0  0  0  0  0
    3.6149   -1.6075    0.9592 H   0  0  0  0  0  0  0  0  0  0  0  0
   -3.7078   -0.7737    1.6943 H   0  0  0  0  0  0  0  0  0  0  0  0
   -2.2931   -1.5291    1.4031 H   0  0  0  0  0  0  0  0  0  0  0  0
    4.2384    0.7476    0.5253 H   0  0  0  0  0  0  0  0  0  0  0  0
   -5.5487   -0.4779   -1.7061 H   0  0  0  0  0  0  0  0  0  0  0  0
  1 14  1  0  0  0  0
  2 15  1  0  0  0  0
  2 27  1  0  0  0  0
  3 15  2  0  0  0  0
  4 10  1  0  0  0  0
  4 11  1  0  0  0  0
  4 21  1  0  0  0  0
  5  9  1  0  0  0  0
  5 24  1  0  0  0  0
  5 25  1  0  0  0  0
  6  7  1  0  0  0  0
  6  8  1  0  0  0  0
  6 11  2  0  0  0  0
  7  9  1  0  0  0  0
  7 17  1  0  0  0  0
  7 18  1  0  0  0  0
  8 10  2  0  0  0  0
  8 12  1  0  0  0  0
  9 15  1  0  0  0  0
  9 19  1  1  0  0  0
 10 13  1  0  0  0  0
 11 20  1  0  0  0  0
 12 14  2  0  0  0  0
 12 22  1  0  0  0  0
 13 16  2  0  0  0  0
 13 23  1  0  0  0  0
 14 16  1  0  0  0  0
 16 26  1  0  0  0  0
M  END
>  <PUBCHEM_COMPOUND_CID>
96735

>  <PUBCHEM_CONFORMER_RMSD>
0.6

>  <PUBCHEM_CONFORMER_DIVERSEORDER>
1
21
23
27
7
6
17
16
25
18
8
20
15
13
19
3
26
9
22
14
12
11
4
5
10
2
24

>  <PUBCHEM_MMFF94_PARTIAL_CHARGES>
23
1 -0.11
10 -0.15
11 -0.3
12 -0.15
13 -0.15
14 0.11
15 0.66
16 -0.15
2 -0.65
20 0.15
21 0.27
22 0.15
23 0.15
24 0.36
25 0.36
26 0.15
27 0.5
3 -0.57
4 0.03
5 -0.99
6 -0.18
7 0.18
9 0.33

>  <PUBCHEM_EFFECTIVE_ROTOR_COUNT>
3

>  <PUBCHEM_PHARMACOPHORE_FEATURES>
10
1 1 hydrophobe
1 2 acceptor
1 3 acceptor
1 4 cation
1 4 donor
1 5 cation
1 5 donor
3 2 3 15 anion
5 4 6 8 10 11 rings
6 8 10 12 13 14 16 rings

>  <PUBCHEM_HEAVY_ATOM_COUNT>
16

>  <PUBCHEM_ATOM_DEF_STEREO_COUNT>
0

>  <PUBCHEM_ATOM_UDEF_STEREO_COUNT>
1

>  <PUBCHEM_BOND_DEF_STEREO_COUNT>
0

>  <PUBCHEM_BOND_UDEF_STEREO_COUNT>
0

>  <PUBCHEM_ISOTOPIC_ATOM_COUNT>
0

>  <PUBCHEM_COMPONENT_COUNT>
1

>  <PUBCHEM_CACTVS_TAUTO_COUNT>
1

>  <PUBCHEM_CONFORMER_ID>
000179DF00000001

>  <PUBCHEM_MMFF94_ENERGY>
20.9886

>  <PUBCHEM_FEATURE_SELFOVERLAP>
50.892

>  <PUBCHEM_SHAPE_FINGERPRINT>
11471102 22 18113907017704346890
11640471 11 17845098359332862833
12403259 327 15647322104417206741
12491281 212 18263649618382218608
13140716 1 18189606327898569578
13618510 140 18409452526420472100
13764800 53 18048323532925062602
14787075 74 18124315167178597895
15490181 8 18412833503275010278
15775835 57 18201723929178119937
16945 1 18409454652334331470
192875 21 18339062822754813833
20510252 161 17617664697134019442
21524375 3 18272090525808676422
21665062 11 17834692495224876801
22094290 62 18410011057116016980
23419403 2 14064036600601634441
23557571 272 16485554645227557526
2748010 2 18192158298407538726
305870 269 18338518525844391474
4175511 71 18193564372126828886
474 4 18409165523688807169
526903 126 17838055166860279408
537710 114 18202278130768364809
63268167 104 18338793420873123914
6333272 397 18409730685624180515
7364860 26 18057606464616908766
74978 22 18337957904190356830
7832392 63 17908425753689332281

>  <PUBCHEM_SHAPE_MULTIPOLES>
313.51
5.41
2.92
1.01
0.7
0.2
-0.2
3.22
0.26
-1.3
0
0.39
0.19
-0.91

>  <PUBCHEM_SHAPE_SELFOVERLAP>
660.978

>  <PUBCHEM_SHAPE_VOLUME>
181.1

>  <PUBCHEM_COORDINATE_TYPE>
2
5
10

$$$$
96735
 OpenBabel12092211543D

 27 28  0  0  1  0  0  0  0  0999 V2000
    2.8050    3.0955   -0.5916 Br  0  0  0  0  0  0  0  0  0  0  0  0
   -4.3382   -0.1719   -1.6652 O   0  0  0  0  0  0  0  0  0  0  0  0
   -4.4971   -1.6176   -3.4133 O   0  0  0  0  0  0  0  0  0  0  0  0
    0.9914   -2.5586    0.3446 N   0  0  0  0  0  0  0  0  0  0  0  0
   -1.8715   -2.3464   -2.9647 N   0  0  0  0  0  0  0  0  0  0  0  0
   -0.5449   -1.2179   -0.5323 C   0  0  0  0  0  0  0  0  0  0  0  0
   -1.8190   -0.7222   -1.0920 C   0  0  0  0  0  0  0  0  0  0  0  0
    0.6466   -0.4639   -0.3410 C   0  0  0  0  0  0  0  0  0  0  0  0
   -2.6366   -1.8036   -1.8405 C   0  0  1  0  0  0  0  0  0  0  0  0
    1.5947   -1.3284    0.2104 C   0  0  0  0  0  0  0  0  0  0  0  0
   -0.3016   -2.5018   -0.1016 C   0  0  0  0  0  0  0  0  0  0  0  0
    1.0106    0.8754   -0.5845 C   0  0  0  0  0  0  0  0  0  0  0  0
    2.8938   -0.9191    0.5315 C   0  0  0  0  0  0  0  0  0  0  0  0
    2.3066    1.2990   -0.2683 C   0  0  0  0  0  0  0  0  0  0  0  0
   -3.9071   -1.2150   -2.4207 C   0  0  0  0  0  0  0  0  0  0  0  0
    3.2321    0.4139    0.2811 C   0  0  0  0  0  0  0  0  0  0  0  0
   -2.4273   -0.2941   -0.2836 H   0  0  0  0  0  0  0  0  0  0  0  0
   -1.6110    0.1084   -1.7804 H   0  0  0  0  0  0  0  0  0  0  0  0
   -2.8950   -2.6293   -1.1667 H   0  0  0  0  0  0  0  0  0  0  0  0
   -0.9312   -3.3803   -0.0712 H   0  0  0  0  0  0  0  0  0  0  0  0
    1.4392   -3.3838    0.7188 H   0  0  0  0  0  0  0  0  0  0  0  0
    0.2931    1.5661   -1.0187 H   0  0  0  0  0  0  0  0  0  0  0  0
    3.6149   -1.6075    0.9592 H   0  0  0  0  0  0  0  0  0  0  0  0
   -2.3868   -3.1175   -3.3885 H   0  0  0  0  0  0  0  0  0  0  0  0
   -0.9980   -2.7443   -2.6213 H   0  0  0  0  0  0  0  0  0  0  0  0
    4.2384    0.7476    0.5253 H   0  0  0  0  0  0  0  0  0  0  0  0
   -5.1644    0.2198   -2.0203 H   0  0  0  0  0  0  0  0  0  0  0  0
  1 14  1  0  0  0  0
  2 15  1  0  0  0  0
  2 27  1  0  0  0  0
  3 15  2  0  0  0  0
  4 10  1  0  0  0  0
  4 11  1  0  0  0  0
  4 21  1  0  0  0  0
  5  9  1  0  0  0  0
  5 24  1  0  0  0  0
  5 25  1  0  0  0  0
  6  7  1  0  0  0  0
  6  8  1  0  0  0  0
  6 11  2  0  0  0  0
  7  9  1  0  0  0  0
  7 17  1  0  0  0  0
  7 18  1  0  0  0  0
  8 10  2  0  0  0  0
  8 12  1  0  0  0  0
  9 15  1  0  0  0  0
  9 19  1  1  0  0  0
 10 13  1  0  0  0  0
 11 20  1  0  0  0  0
 12 14  2  0  0  0  0
 12 22  1  0  0  0  0
 13 16  2  0  0  0  0
 13 23  1  0  0  0  0
 14 16  1  0  0  0  0
 16 26  1  0  0  0  0
M  END
>  <PUBCHEM_COMPOUND_CID>
96735

>  <PUBCHEM_CONFORMER_RMSD>
0.6

>  <PUBCHEM_CONFORMER_DIVERSEORDER>
1
21
23
27
7
6
17
16
25
18
8
20
15
13
19
3
26
9
22
14
12
11
4
5
10
2
24

>  <PUBCHEM_MMFF94_PARTIAL_CHARGES>
23
1 -0.11
10 -0.15
11 -0.3
12 -0.15
13 -0.15
14 0.11
15 0.66
16 -0.15
2 -0.65
20 0.15
21 0.27
22 0.15
23 0.15
24 0.36
25 0.36
26 0.15
27 0.5
3 -0.57
4 0.03
5 -0.99
6 -0.18
7 0.18
9 0.33

>  <PUBCHEM_EFFECTIVE_ROTOR_COUNT>
3

>  <PUBCHEM_PHARMACOPHORE_FEATURES>
10
1 1 hydrophobe
1 2 acceptor
1 3 acceptor
1 4 cation
1 4 donor
1 5 cation
1 5 donor
3 2 3 15 anion
5 4 6 8 10 11 rings
6 8 10 12 13 14 16 rings

>  <PUBCHEM_HEAVY_ATOM_COUNT>
16

>  <PUBCHEM_ATOM_DEF_STEREO_COUNT>
0

>  <PUBCHEM_ATOM_UDEF_STEREO_COUNT>
1

>  <PUBCHEM_BOND_DEF_STEREO_COUNT>
0

>  <PUBCHEM_BOND_UDEF_STEREO_COUNT>
0

>  <PUBCHEM_ISOTOPIC_ATOM_COUNT>
0

>  <PUBCHEM_COMPONENT_COUNT>
1

>  <PUBCHEM_CACTVS_TAUTO_COUNT>
1

>  <PUBCHEM_CONFORMER_ID>
000179DF00000001

>  <PUBCHEM_MMFF94_ENERGY>
20.9886

>  <PUBCHEM_FEATURE_SELFOVERLAP>
50.892

>  <PUBCHEM_SHAPE_FINGERPRINT>
11471102 22 18113907017704346890
11640471 11 17845098359332862833
12403259 327 15647322104417206741
12491281 212 18263649618382218608
13140716 1 18189606327898569578
13618510 140 18409452526420472100
13764800 53 18048323532925062602
14787075 74 18124315167178597895
15490181 8 18412833503275010278
15775835 57 18201723929178119937
16945 1 18409454652334331470
192875 21 18339062822754813833
20510252 161 17617664697134019442
21524375 3 18272090525808676422
21665062 11 17834692495224876801
22094290 62 18410011057116016980
23419403 2 14064036600601634441
23557571 272 16485554645227557526
2748010 2 18192158298407538726
305870 269 18338518525844391474
4175511 71 18193564372126828886
474 4 18409165523688807169
526903 126 17838055166860279408
537710 114 18202278130768364809
63268167 104 18338793420873123914
6333272 397 18409730685624180515
7364860 26 18057606464616908766
74978 22 18337957904190356830
7832392 63 17908425753689332281

>  <PUBCHEM_SHAPE_MULTIPOLES>
313.51
5.41
2.92
1.01
0.7
0.2
-0.2
3.22
0.26
-1.3
0
0.39
0.19
-0.91

>  <PUBCHEM_SHAPE_SELFOVERLAP>
660.978

>  <PUBCHEM_SHAPE_VOLUME>
181.1

>  <PUBCHEM_COORDINATE_TYPE>
2
5
10

$$$$
96735
 OpenBabel12092211543D

 27 28  0  0  1  0  0  0  0  0999 V2000
    2.8050    3.0955   -0.5916 Br  0  0  0  0  0  0  0  0  0  0  0  0
   -2.3733   -3.1206   -2.0734 O   0  0  0  0  0  0  0  0  0  0  0  0
   -1.3723   -2.7529   -4.0820 O   0  0  0  0  0  0  0  0  0  0  0  0
    0.9914   -2.5586    0.3446 N   0  0  0  0  0  0  0  0  0  0  0  0
   -3.2108   -0.3574   -3.1114 N   0  0  0  0  0  0  0  0  0  0  0  0
   -0.5449   -1.2179   -0.5323 C   0  0  0  0  0  0  0  0  0  0  0  0
   -1.8190   -0.7222   -1.0920 C   0  0  0  0  0  0  0  0  0  0  0  0
    0.6466   -0.4639   -0.3410 C   0  0  0  0  0  0  0  0  0  0  0  0
   -1.9253   -0.8671   -2.6302 C   0  0  1  0  0  0  0  0  0  0  0  0
    1.5947   -1.3284    0.2104 C   0  0  0  0  0  0  0  0  0  0  0  0
   -0.3016   -2.5018   -0.1016 C   0  0  0  0  0  0  0  0  0  0  0  0
    1.0106    0.8754   -0.5845 C   0  0  0  0  0  0  0  0  0  0  0  0
    2.8938   -0.9191    0.5315 C   0  0  0  0  0  0  0  0  0  0  0  0
    2.3066    1.2990   -0.2683 C   0  0  0  0  0  0  0  0  0  0  0  0
   -1.8515   -2.3240   -3.0419 C   0  0  0  0  0  0  0  0  0  0  0  0
    3.2321    0.4139    0.2811 C   0  0  0  0  0  0  0  0  0  0  0  0
   -2.6546   -1.2508   -0.6134 H   0  0  0  0  0  0  0  0  0  0  0  0
   -1.9428    0.3359   -0.8236 H   0  0  0  0  0  0  0  0  0  0  0  0
   -1.1232   -0.3092   -3.1281 H   0  0  0  0  0  0  0  0  0  0  0  0
   -0.9312   -3.3803   -0.0712 H   0  0  0  0  0  0  0  0  0  0  0  0
    1.4392   -3.3838    0.7188 H   0  0  0  0  0  0  0  0  0  0  0  0
    0.2931    1.5661   -1.0187 H   0  0  0  0  0  0  0  0  0  0  0  0
    3.6149   -1.6075    0.9592 H   0  0  0  0  0  0  0  0  0  0  0  0
   -3.2264   -0.3768   -4.1307 H   0  0  0  0  0  0  0  0  0  0  0  0
   -3.3098    0.6216   -2.8450 H   0  0  0  0  0  0  0  0  0  0  0  0
    4.2384    0.7476    0.5253 H   0  0  0  0  0  0  0  0  0  0  0  0
   -2.3290   -4.0696   -2.3176 H   0  0  0  0  0  0  0  0  0  0  0  0
  1 14  1  0  0  0  0
  2 15  1  0  0  0  0
  2 27  1  0  0  0  0
  3 15  2  0  0  0  0
  4 10  1  0  0  0  0
  4 11  1  0  0  0  0
  4 21  1  0  0  0  0
  5  9  1  0  0  0  0
  5 24  1  0  0  0  0
  5 25  1  0  0  0  0
  6  7  1  0  0  0  0
  6  8  1  0  0  0  0
  6 11  2  0  0  0  0
  7  9  1  0  0  0  0
  7 17  1  0  0  0  0
  7 18  1  0  0  0  0
  8 10  2  0  0  0  0
  8 12  1  0  0  0  0
  9 15  1  0  0  0  0
  9 19  1  6  0  0  0
 10 13  1  0  0  0  0
 11 20  1  0  0  0  0
 12 14  2  0  0  0  0
 12 22  1  0  0  0  0
 13 16  2  0  0  0  0
 13 23  1  0  0  0  0
 14 16  1  0  0  0  0
 16 26  1  0  0  0  0
M  END
>  <PUBCHEM_COMPOUND_CID>
96735

>  <PUBCHEM_CONFORMER_RMSD>
0.6

>  <PUBCHEM_CONFORMER_DIVERSEORDER>
1
21
23
27
7
6
17
16
25
18
8
20
15
13
19
3
26
9
22
14
12
11
4
5
10
2
24

>  <PUBCHEM_MMFF94_PARTIAL_CHARGES>
23
1 -0.11
10 -0.15
11 -0.3
12 -0.15
13 -0.15
14 0.11
15 0.66
16 -0.15
2 -0.65
20 0.15
21 0.27
22 0.15
23 0.15
24 0.36
25 0.36
26 0.15
27 0.5
3 -0.57
4 0.03
5 -0.99
6 -0.18
7 0.18
9 0.33

>  <PUBCHEM_EFFECTIVE_ROTOR_COUNT>
3

>  <PUBCHEM_PHARMACOPHORE_FEATURES>
10
1 1 hydrophobe
1 2 acceptor
1 3 acceptor
1 4 cation
1 4 donor
1 5 cation
1 5 donor
3 2 3 15 anion
5 4 6 8 10 11 rings
6 8 10 12 13 14 16 rings

>  <PUBCHEM_HEAVY_ATOM_COUNT>
16

>  <PUBCHEM_ATOM_DEF_STEREO_COUNT>
0

>  <PUBCHEM_ATOM_UDEF_STEREO_COUNT>
1

>  <PUBCHEM_BOND_DEF_STEREO_COUNT>
0

>  <PUBCHEM_BOND_UDEF_STEREO_COUNT>
0

>  <PUBCHEM_ISOTOPIC_ATOM_COUNT>
0

>  <PUBCHEM_COMPONENT_COUNT>
1

>  <PUBCHEM_CACTVS_TAUTO_COUNT>
1

>  <PUBCHEM_CONFORMER_ID>
000179DF00000001

>  <PUBCHEM_MMFF94_ENERGY>
20.9886

>  <PUBCHEM_FEATURE_SELFOVERLAP>
50.892

>  <PUBCHEM_SHAPE_FINGERPRINT>
11471102 22 18113907017704346890
11640471 11 17845098359332862833
12403259 327 15647322104417206741
12491281 212 18263649618382218608
13140716 1 18189606327898569578
13618510 140 18409452526420472100
13764800 53 18048323532925062602
14787075 74 18124315167178597895
15490181 8 18412833503275010278
15775835 57 18201723929178119937
16945 1 18409454652334331470
192875 21 18339062822754813833
20510252 161 17617664697134019442
21524375 3 18272090525808676422
21665062 11 17834692495224876801
22094290 62 18410011057116016980
23419403 2 14064036600601634441
23557571 272 16485554645227557526
2748010 2 18192158298407538726
305870 269 18338518525844391474
4175511 71 18193564372126828886
474 4 18409165523688807169
526903 126 17838055166860279408
537710 114 18202278130768364809
63268167 104 18338793420873123914
6333272 397 18409730685624180515
7364860 26 18057606464616908766
74978 22 18337957904190356830
7832392 63 17908425753689332281

>  <PUBCHEM_SHAPE_MULTIPOLES>
313.51
5.41
2.92
1.01
0.7
0.2
-0.2
3.22
0.26
-1.3
0
0.39
0.19
-0.91

>  <PUBCHEM_SHAPE_SELFOVERLAP>
660.978

>  <PUBCHEM_SHAPE_VOLUME>
181.1

>  <PUBCHEM_COORDINATE_TYPE>
2
5
10

$$$$
96735
 OpenBabel12092211543D

 27 28  0  0  1  0  0  0  0  0999 V2000
    2.8050    3.0955   -0.5916 Br  0  0  0  0  0  0  0  0  0  0  0  0
   -3.3808   -0.4144   -4.1794 O   0  0  0  0  0  0  0  0  0  0  0  0
   -4.6175   -0.7921   -2.3087 O   0  0  0  0  0  0  0  0  0  0  0  0
    0.9914   -2.5586    0.3446 N   0  0  0  0  0  0  0  0  0  0  0  0
   -1.2668   -1.3217   -3.4337 N   0  0  0  0  0  0  0  0  0  0  0  0
   -0.5449   -1.2179   -0.5323 C   0  0  0  0  0  0  0  0  0  0  0  0
   -1.8190   -0.7222   -1.0920 C   0  0  0  0  0  0  0  0  0  0  0  0
    0.6466   -0.4639   -0.3410 C   0  0  0  0  0  0  0  0  0  0  0  0
   -2.2689   -1.4627   -2.3755 C   0  0  1  0  0  0  0  0  0  0  0  0
    1.5947   -1.3284    0.2104 C   0  0  0  0  0  0  0  0  0  0  0  0
   -0.3016   -2.5018   -0.1016 C   0  0  0  0  0  0  0  0  0  0  0  0
    1.0106    0.8754   -0.5845 C   0  0  0  0  0  0  0  0  0  0  0  0
    2.8938   -0.9191    0.5315 C   0  0  0  0  0  0  0  0  0  0  0  0
    2.3066    1.2990   -0.2683 C   0  0  0  0  0  0  0  0  0  0  0  0
   -3.5583   -0.8754   -2.9141 C   0  0  0  0  0  0  0  0  0  0  0  0
    3.2321    0.4139    0.2811 C   0  0  0  0  0  0  0  0  0  0  0  0
   -2.6044   -0.7990   -0.3277 H   0  0  0  0  0  0  0  0  0  0  0  0
   -1.7224    0.3495   -1.3134 H   0  0  0  0  0  0  0  0  0  0  0  0
   -2.4136   -2.5312   -2.1757 H   0  0  0  0  0  0  0  0  0  0  0  0
   -0.9312   -3.3803   -0.0712 H   0  0  0  0  0  0  0  0  0  0  0  0
    1.4392   -3.3838    0.7188 H   0  0  0  0  0  0  0  0  0  0  0  0
    0.2931    1.5661   -1.0187 H   0  0  0  0  0  0  0  0  0  0  0  0
    3.6149   -1.6075    0.9592 H   0  0  0  0  0  0  0  0  0  0  0  0
   -1.5359   -1.8888   -4.2372 H   0  0  0  0  0  0  0  0  0  0  0  0
   -0.3751   -1.6946   -3.1097 H   0  0  0  0  0  0  0  0  0  0  0  0
    4.2384    0.7476    0.5253 H   0  0  0  0  0  0  0  0  0  0  0  0
   -4.2030   -0.0236   -4.5447 H   0  0  0  0  0  0  0  0  0  0  0  0
  1 14  1  0  0  0  0
  2 15  1  0  0  0  0
  2 27  1  0  0  0  0
  3 15  2  0  0  0  0
  4 10  1  0  0  0  0
  4 11  1  0  0  0  0
  4 21  1  0  0  0  0
  5  9  1  0  0  0  0
  5 24  1  0  0  0  0
  5 25  1  0  0  0  0
  6  7  1  0  0  0  0
  6  8  1  0  0  0  0
  6 11  2  0  0  0  0
  7  9  1  0  0  0  0
  7 17  1  0  0  0  0
  7 18  1  0  0  0  0
  8 10  2  0  0  0  0
  8 12  1  0  0  0  0
  9 15  1  0  0  0  0
  9 19  1  1  0  0  0
 10 13  1  0  0  0  0
 11 20  1  0  0  0  0
 12 14  2  0  0  0  0
 12 22  1  0  0  0  0
 13 16  2  0  0  0  0
 13 23  1  0  0  0  0
 14 16  1  0  0  0  0
 16 26  1  0  0  0  0
M  END
>  <PUBCHEM_COMPOUND_CID>
96735

>  <PUBCHEM_CONFORMER_RMSD>
0.6

>  <PUBCHEM_CONFORMER_DIVERSEORDER>
1
21
23
27
7
6
17
16
25
18
8
20
15
13
19
3
26
9
22
14
12
11
4
5
10
2
24

>  <PUBCHEM_MMFF94_PARTIAL_CHARGES>
23
1 -0.11
10 -0.15
11 -0.3
12 -0.15
13 -0.15
14 0.11
15 0.66
16 -0.15
2 -0.65
20 0.15
21 0.27
22 0.15
23 0.15
24 0.36
25 0.36
26 0.15
27 0.5
3 -0.57
4 0.03
5 -0.99
6 -0.18
7 0.18
9 0.33

>  <PUBCHEM_EFFECTIVE_ROTOR_COUNT>
3

>  <PUBCHEM_PHARMACOPHORE_FEATURES>
10
1 1 hydrophobe
1 2 acceptor
1 3 acceptor
1 4 cation
1 4 donor
1 5 cation
1 5 donor
3 2 3 15 anion
5 4 6 8 10 11 rings
6 8 10 12 13 14 16 rings

>  <PUBCHEM_HEAVY_ATOM_COUNT>
16

>  <PUBCHEM_ATOM_DEF_STEREO_COUNT>
0

>  <PUBCHEM_ATOM_UDEF_STEREO_COUNT>
1

>  <PUBCHEM_BOND_DEF_STEREO_COUNT>
0

>  <PUBCHEM_BOND_UDEF_STEREO_COUNT>
0

>  <PUBCHEM_ISOTOPIC_ATOM_COUNT>
0

>  <PUBCHEM_COMPONENT_COUNT>
1

>  <PUBCHEM_CACTVS_TAUTO_COUNT>
1

>  <PUBCHEM_CONFORMER_ID>
000179DF00000001

>  <PUBCHEM_MMFF94_ENERGY>
20.9886

>  <PUBCHEM_FEATURE_SELFOVERLAP>
50.892

>  <PUBCHEM_SHAPE_FINGERPRINT>
11471102 22 18113907017704346890
11640471 11 17845098359332862833
12403259 327 15647322104417206741
12491281 212 18263649618382218608
13140716 1 18189606327898569578
13618510 140 18409452526420472100
13764800 53 18048323532925062602
14787075 74 18124315167178597895
15490181 8 18412833503275010278
15775835 57 18201723929178119937
16945 1 18409454652334331470
192875 21 18339062822754813833
20510252 161 17617664697134019442
21524375 3 18272090525808676422
21665062 11 17834692495224876801
22094290 62 18410011057116016980
23419403 2 14064036600601634441
23557571 272 16485554645227557526
2748010 2 18192158298407538726
305870 269 18338518525844391474
4175511 71 18193564372126828886
474 4 18409165523688807169
526903 126 17838055166860279408
537710 114 18202278130768364809
63268167 104 18338793420873123914
6333272 397 18409730685624180515
7364860 26 18057606464616908766
74978 22 18337957904190356830
7832392 63 17908425753689332281

>  <PUBCHEM_SHAPE_MULTIPOLES>
313.51
5.41
2.92
1.01
0.7
0.2
-0.2
3.22
0.26
-1.3
0
0.39
0.19
-0.91

>  <PUBCHEM_SHAPE_SELFOVERLAP>
660.978

>  <PUBCHEM_SHAPE_VOLUME>
181.1

>  <PUBCHEM_COORDINATE_TYPE>
2
5
10

$$$$
96735
 OpenBabel12092211543D

 27 28  0  0  1  0  0  0  0  0999 V2000
    2.8050    3.0955   -0.5916 Br  0  0  0  0  0  0  0  0  0  0  0  0
   -1.7272   -1.0386   -4.7372 O   0  0  0  0  0  0  0  0  0  0  0  0
   -0.5574   -2.2339   -3.1964 O   0  0  0  0  0  0  0  0  0  0  0  0
    0.9914   -2.5586    0.3446 N   0  0  0  0  0  0  0  0  0  0  0  0
   -2.9959    0.2947   -3.0230 N   0  0  0  0  0  0  0  0  0  0  0  0
   -0.5449   -1.2179   -0.5323 C   0  0  0  0  0  0  0  0  0  0  0  0
   -1.8190   -0.7222   -1.0920 C   0  0  0  0  0  0  0  0  0  0  0  0
    0.6466   -0.4639   -0.3410 C   0  0  0  0  0  0  0  0  0  0  0  0
   -1.6979   -0.1764   -2.5362 C   0  0  1  0  0  0  0  0  0  0  0  0
    1.5947   -1.3284    0.2104 C   0  0  0  0  0  0  0  0  0  0  0  0
   -0.3016   -2.5018   -0.1016 C   0  0  0  0  0  0  0  0  0  0  0  0
    1.0106    0.8754   -0.5845 C   0  0  0  0  0  0  0  0  0  0  0  0
    2.8938   -0.9191    0.5315 C   0  0  0  0  0  0  0  0  0  0  0  0
    2.3066    1.2990   -0.2683 C   0  0  0  0  0  0  0  0  0  0  0  0
   -1.2430   -1.2644   -3.4885 C   0  0  0  0  0  0  0  0  0  0  0  0
    3.2321    0.4139    0.2811 C   0  0  0  0  0  0  0  0  0  0  0  0
   -2.5647   -1.5284   -1.0640 H   0  0  0  0  0  0  0  0  0  0  0  0
   -2.2133    0.0712   -0.4423 H   0  0  0  0  0  0  0  0  0  0  0  0
   -0.9889    0.6592   -2.5762 H   0  0  0  0  0  0  0  0  0  0  0  0
   -0.9312   -3.3803   -0.0712 H   0  0  0  0  0  0  0  0  0  0  0  0
    1.4392   -3.3838    0.7188 H   0  0  0  0  0  0  0  0  0  0  0  0
    0.2931    1.5661   -1.0187 H   0  0  0  0  0  0  0  0  0  0  0  0
    3.6149   -1.6075    0.9592 H   0  0  0  0  0  0  0  0  0  0  0  0
   -2.8801    0.7322   -3.9367 H   0  0  0  0  0  0  0  0  0  0  0  0
   -3.3480    1.0230   -2.4027 H   0  0  0  0  0  0  0  0  0  0  0  0
    4.2384    0.7476    0.5253 H   0  0  0  0  0  0  0  0  0  0  0  0
   -1.4495   -1.7361   -5.3685 H   0  0  0  0  0  0  0  0  0  0  0  0
  1 14  1  0  0  0  0
  2 15  1  0  0  0  0
  2 27  1  0  0  0  0
  3 15  2  0  0  0  0
  4 10  1  0  0  0  0
  4 11  1  0  0  0  0
  4 21  1  0  0  0  0
  5  9  1  0  0  0  0
  5 24  1  0  0  0  0
  5 25  1  0  0  0  0
  6  7  1  0  0  0  0
  6  8  1  0  0  0  0
  6 11  2  0  0  0  0
  7  9  1  0  0  0  0
  7 17  1  0  0  0  0
  7 18  1  0  0  0  0
  8 10  2  0  0  0  0
  8 12  1  0  0  0  0
  9 15  1  0  0  0  0
  9 19  1  6  0  0  0
 10 13  1  0  0  0  0
 11 20  1  0  0  0  0
 12 14  2  0  0  0  0
 12 22  1  0  0  0  0
 13 16  2  0  0  0  0
 13 23  1  0  0  0  0
 14 16  1  0  0  0  0
 16 26  1  0  0  0  0
M  END
>  <PUBCHEM_COMPOUND_CID>
96735

>  <PUBCHEM_CONFORMER_RMSD>
0.6

>  <PUBCHEM_CONFORMER_DIVERSEORDER>
1
21
23
27
7
6
17
16
25
18
8
20
15
13
19
3
26
9
22
14
12
11
4
5
10
2
24

>  <PUBCHEM_MMFF94_PARTIAL_CHARGES>
23
1 -0.11
10 -0.15
11 -0.3
12 -0.15
13 -0.15
14 0.11
15 0.66
16 -0.15
2 -0.65
20 0.15
21 0.27
22 0.15
23 0.15
24 0.36
25 0.36
26 0.15
27 0.5
3 -0.57
4 0.03
5 -0.99
6 -0.18
7 0.18
9 0.33

>  <PUBCHEM_EFFECTIVE_ROTOR_COUNT>
3

>  <PUBCHEM_PHARMACOPHORE_FEATURES>
10
1 1 hydrophobe
1 2 acceptor
1 3 acceptor
1 4 cation
1 4 donor
1 5 cation
1 5 donor
3 2 3 15 anion
5 4 6 8 10 11 rings
6 8 10 12 13 14 16 rings

>  <PUBCHEM_HEAVY_ATOM_COUNT>
16

>  <PUBCHEM_ATOM_DEF_STEREO_COUNT>
0

>  <PUBCHEM_ATOM_UDEF_STEREO_COUNT>
1

>  <PUBCHEM_BOND_DEF_STEREO_COUNT>
0

>  <PUBCHEM_BOND_UDEF_STEREO_COUNT>
0

>  <PUBCHEM_ISOTOPIC_ATOM_COUNT>
0

>  <PUBCHEM_COMPONENT_COUNT>
1

>  <PUBCHEM_CACTVS_TAUTO_COUNT>
1

>  <PUBCHEM_CONFORMER_ID>
000179DF00000001

>  <PUBCHEM_MMFF94_ENERGY>
20.9886

>  <PUBCHEM_FEATURE_SELFOVERLAP>
50.892

>  <PUBCHEM_SHAPE_FINGERPRINT>
11471102 22 18113907017704346890
11640471 11 17845098359332862833
12403259 327 15647322104417206741
12491281 212 18263649618382218608
13140716 1 18189606327898569578
13618510 140 18409452526420472100
13764800 53 18048323532925062602
14787075 74 18124315167178597895
15490181 8 18412833503275010278
15775835 57 18201723929178119937
16945 1 18409454652334331470
192875 21 18339062822754813833
20510252 161 17617664697134019442
21524375 3 18272090525808676422
21665062 11 17834692495224876801
22094290 62 18410011057116016980
23419403 2 14064036600601634441
23557571 272 16485554645227557526
2748010 2 18192158298407538726
305870 269 18338518525844391474
4175511 71 18193564372126828886
474 4 18409165523688807169
526903 126 17838055166860279408
537710 114 18202278130768364809
63268167 104 18338793420873123914
6333272 397 18409730685624180515
7364860 26 18057606464616908766
74978 22 18337957904190356830
7832392 63 17908425753689332281

>  <PUBCHEM_SHAPE_MULTIPOLES>
313.51
5.41
2.92
1.01
0.7
0.2
-0.2
3.22
0.26
-1.3
0
0.39
0.19
-0.91

>  <PUBCHEM_SHAPE_SELFOVERLAP>
660.978

>  <PUBCHEM_SHAPE_VOLUME>
181.1

>  <PUBCHEM_COORDINATE_TYPE>
2
5
10

$$$$
96735
 OpenBabel12092211543D

 27 28  0  0  1  0  0  0  0  0999 V2000
    2.8050    3.0955   -0.5916 Br  0  0  0  0  0  0  0  0  0  0  0  0
   -3.2857    1.2290    0.9753 O   0  0  0  0  0  0  0  0  0  0  0  0
   -2.2208   -0.4054    2.1442 O   0  0  0  0  0  0  0  0  0  0  0  0
    0.9914   -2.5586    0.3446 N   0  0  0  0  0  0  0  0  0  0  0  0
   -4.2436   -0.3380   -0.7430 N   0  0  0  0  0  0  0  0  0  0  0  0
   -0.5449   -1.2179   -0.5323 C   0  0  0  0  0  0  0  0  0  0  0  0
   -1.8190   -0.7222   -1.0920 C   0  0  0  0  0  0  0  0  0  0  0  0
    0.6466   -0.4639   -0.3410 C   0  0  0  0  0  0  0  0  0  0  0  0
   -3.0197   -0.8480   -0.1221 C   0  0  1  0  0  0  0  0  0  0  0  0
    1.5947   -1.3284    0.2104 C   0  0  0  0  0  0  0  0  0  0  0  0
   -0.3016   -2.5018   -0.1016 C   0  0  0  0  0  0  0  0  0  0  0  0
    1.0106    0.8754   -0.5845 C   0  0  0  0  0  0  0  0  0  0  0  0
    2.8938   -0.9191    0.5315 C   0  0  0  0  0  0  0  0  0  0  0  0
    2.3066    1.2990   -0.2683 C   0  0  0  0  0  0  0  0  0  0  0  0
   -2.7905   -0.0262    1.1307 C   0  0  0  0  0  0  0  0  0  0  0  0
    3.2321    0.4139    0.2811 C   0  0  0  0  0  0  0  0  0  0  0  0
   -1.6977    0.3270   -1.3943 H   0  0  0  0  0  0  0  0  0  0  0  0
   -2.0459   -1.2739   -2.0146 H   0  0  0  0  0  0  0  0  0  0  0  0
   -3.1837   -1.8956    0.1574 H   0  0  0  0  0  0  0  0  0  0  0  0
   -0.9312   -3.3803   -0.0712 H   0  0  0  0  0  0  0  0  0  0  0  0
    1.4392   -3.3838    0.7188 H   0  0  0  0  0  0  0  0  0  0  0  0
    0.2931    1.5661   -1.0187 H   0  0  0  0  0  0  0  0  0  0  0  0
    3.6149   -1.6075    0.9592 H   0  0  0  0  0  0  0  0  0  0  0  0
   -5.0375   -0.5116   -0.1273 H   0  0  0  0  0  0  0  0  0  0  0  0
   -4.4314   -0.8562   -1.6006 H   0  0  0  0  0  0  0  0  0  0  0  0
    4.2384    0.7476    0.5253 H   0  0  0  0  0  0  0  0  0  0  0  0
   -3.1414    1.7803    1.7737 H   0  0  0  0  0  0  0  0  0  0  0  0
  1 14  1  0  0  0  0
  2 15  1  0  0  0  0
  2 27  1  0  0  0  0
  3 15  2  0  0  0  0
  4 10  1  0  0  0  0
  4 11  1  0  0  0  0
  4 21  1  0  0  0  0
  5  9  1  0  0  0  0
  5 24  1  0  0  0  0
  5 25  1  0  0  0  0
  6  7  1  0  0  0  0
  6  8  1  0  0  0  0
  6 11  2  0  0  0  0
  7  9  1  0  0  0  0
  7 17  1  0  0  0  0
  7 18  1  0  0  0  0
  8 10  2  0  0  0  0
  8 12  1  0  0  0  0
  9 15  1  0  0  0  0
  9 19  1  1  0  0  0
 10 13  1  0  0  0  0
 11 20  1  0  0  0  0
 12 14  2  0  0  0  0
 12 22  1  0  0  0  0
 13 16  2  0  0  0  0
 13 23  1  0  0  0  0
 14 16  1  0  0  0  0
 16 26  1  0  0  0  0
M  END
>  <PUBCHEM_COMPOUND_CID>
96735

>  <PUBCHEM_CONFORMER_RMSD>
0.6

>  <PUBCHEM_CONFORMER_DIVERSEORDER>
1
21
23
27
7
6
17
16
25
18
8
20
15
13
19
3
26
9
22
14
12
11
4
5
10
2
24

>  <PUBCHEM_MMFF94_PARTIAL_CHARGES>
23
1 -0.11
10 -0.15
11 -0.3
12 -0.15
13 -0.15
14 0.11
15 0.66
16 -0.15
2 -0.65
20 0.15
21 0.27
22 0.15
23 0.15
24 0.36
25 0.36
26 0.15
27 0.5
3 -0.57
4 0.03
5 -0.99
6 -0.18
7 0.18
9 0.33

>  <PUBCHEM_EFFECTIVE_ROTOR_COUNT>
3

>  <PUBCHEM_PHARMACOPHORE_FEATURES>
10
1 1 hydrophobe
1 2 acceptor
1 3 acceptor
1 4 cation
1 4 donor
1 5 cation
1 5 donor
3 2 3 15 anion
5 4 6 8 10 11 rings
6 8 10 12 13 14 16 rings

>  <PUBCHEM_HEAVY_ATOM_COUNT>
16

>  <PUBCHEM_ATOM_DEF_STEREO_COUNT>
0

>  <PUBCHEM_ATOM_UDEF_STEREO_COUNT>
1

>  <PUBCHEM_BOND_DEF_STEREO_COUNT>
0

>  <PUBCHEM_BOND_UDEF_STEREO_COUNT>
0

>  <PUBCHEM_ISOTOPIC_ATOM_COUNT>
0

>  <PUBCHEM_COMPONENT_COUNT>
1

>  <PUBCHEM_CACTVS_TAUTO_COUNT>
1

>  <PUBCHEM_CONFORMER_ID>
000179DF00000001

>  <PUBCHEM_MMFF94_ENERGY>
20.9886

>  <PUBCHEM_FEATURE_SELFOVERLAP>
50.892

>  <PUBCHEM_SHAPE_FINGERPRINT>
11471102 22 18113907017704346890
11640471 11 17845098359332862833
12403259 327 15647322104417206741
12491281 212 18263649618382218608
13140716 1 18189606327898569578
13618510 140 18409452526420472100
13764800 53 18048323532925062602
14787075 74 18124315167178597895
15490181 8 18412833503275010278
15775835 57 18201723929178119937
16945 1 18409454652334331470
192875 21 18339062822754813833
20510252 161 17617664697134019442
21524375 3 18272090525808676422
21665062 11 17834692495224876801
22094290 62 18410011057116016980
23419403 2 14064036600601634441
23557571 272 16485554645227557526
2748010 2 18192158298407538726
305870 269 18338518525844391474
4175511 71 18193564372126828886
474 4 18409165523688807169
526903 126 17838055166860279408
537710 114 18202278130768364809
63268167 104 18338793420873123914
6333272 397 18409730685624180515
7364860 26 18057606464616908766
74978 22 18337957904190356830
7832392 63 17908425753689332281

>  <PUBCHEM_SHAPE_MULTIPOLES>
313.51
5.41
2.92
1.01
0.7
0.2
-0.2
3.22
0.26
-1.3
0
0.39
0.19
-0.91

>  <PUBCHEM_SHAPE_SELFOVERLAP>
660.978

>  <PUBCHEM_SHAPE_VOLUME>
181.1

>  <PUBCHEM_COORDINATE_TYPE>
2
5
10

$$$$
96735
 OpenBabel12092211543D

 27 28  0  0  1  0  0  0  0  0999 V2000
    2.8050    3.0955   -0.5916 Br  0  0  0  0  0  0  0  0  0  0  0  0
   -4.9999   -1.8280   -1.8963 O   0  0  0  0  0  0  0  0  0  0  0  0
   -3.9696   -0.3299   -3.2622 O   0  0  0  0  0  0  0  0  0  0  0  0
    0.9914   -2.5586    0.3446 N   0  0  0  0  0  0  0  0  0  0  0  0
   -1.8715   -2.3464   -2.9647 N   0  0  0  0  0  0  0  0  0  0  0  0
   -0.5449   -1.2179   -0.5323 C   0  0  0  0  0  0  0  0  0  0  0  0
   -1.8190   -0.7222   -1.0920 C   0  0  0  0  0  0  0  0  0  0  0  0
    0.6466   -0.4639   -0.3410 C   0  0  0  0  0  0  0  0  0  0  0  0
   -2.6366   -1.8036   -1.8405 C   0  0  1  0  0  0  0  0  0  0  0  0
    1.5947   -1.3284    0.2104 C   0  0  0  0  0  0  0  0  0  0  0  0
   -0.3016   -2.5018   -0.1016 C   0  0  0  0  0  0  0  0  0  0  0  0
    1.0106    0.8754   -0.5845 C   0  0  0  0  0  0  0  0  0  0  0  0
    2.8938   -0.9191    0.5315 C   0  0  0  0  0  0  0  0  0  0  0  0
    2.3066    1.2990   -0.2683 C   0  0  0  0  0  0  0  0  0  0  0  0
   -3.9071   -1.2150   -2.4207 C   0  0  0  0  0  0  0  0  0  0  0  0
    3.2321    0.4139    0.2811 C   0  0  0  0  0  0  0  0  0  0  0  0
   -2.4273   -0.2941   -0.2836 H   0  0  0  0  0  0  0  0  0  0  0  0
   -1.6110    0.1084   -1.7804 H   0  0  0  0  0  0  0  0  0  0  0  0
   -2.8950   -2.6293   -1.1667 H   0  0  0  0  0  0  0  0  0  0  0  0
   -0.9312   -3.3803   -0.0712 H   0  0  0  0  0  0  0  0  0  0  0  0
    1.4392   -3.3838    0.7188 H   0  0  0  0  0  0  0  0  0  0  0  0
    0.2931    1.5661   -1.0187 H   0  0  0  0  0  0  0  0  0  0  0  0
    3.6149   -1.6075    0.9592 H   0  0  0  0  0  0  0  0  0  0  0  0
   -2.3868   -3.1175   -3.3885 H   0  0  0  0  0  0  0  0  0  0  0  0
   -0.9980   -2.7443   -2.6213 H   0  0  0  0  0  0  0  0  0  0  0  0
    4.2384    0.7476    0.5253 H   0  0  0  0  0  0  0  0  0  0  0  0
   -5.8339   -1.4658   -2.2642 H   0  0  0  0  0  0  0  0  0  0  0  0
  1 14  1  0  0  0  0
  2 15  1  0  0  0  0
  2 27  1  0  0  0  0
  3 15  2  0  0  0  0
  4 10  1  0  0  0  0
  4 11  1  0  0  0  0
  4 21  1  0  0  0  0
  5  9  1  0  0  0  0
  5 24  1  0  0  0  0
  5 25  1  0  0  0  0
  6  7  1  0  0  0  0
  6  8  1  0  0  0  0
  6 11  2  0  0  0  0
  7  9  1  0  0  0  0
  7 17  1  0  0  0  0
  7 18  1  0  0  0  0
  8 10  2  0  0  0  0
  8 12  1  0  0  0  0
  9 15  1  0  0  0  0
  9 19  1  1  0  0  0
 10 13  1  0  0  0  0
 11 20  1  0  0  0  0
 12 14  2  0  0  0  0
 12 22  1  0  0  0  0
 13 16  2  0  0  0  0
 13 23  1  0  0  0  0
 14 16  1  0  0  0  0
 16 26  1  0  0  0  0
M  END
>  <PUBCHEM_COMPOUND_CID>
96735

>  <PUBCHEM_CONFORMER_RMSD>
0.6

>  <PUBCHEM_CONFORMER_DIVERSEORDER>
1
21
23
27
7
6
17
16
25
18
8
20
15
13
19
3
26
9
22
14
12
11
4
5
10
2
24

>  <PUBCHEM_MMFF94_PARTIAL_CHARGES>
23
1 -0.11
10 -0.15
11 -0.3
12 -0.15
13 -0.15
14 0.11
15 0.66
16 -0.15
2 -0.65
20 0.15
21 0.27
22 0.15
23 0.15
24 0.36
25 0.36
26 0.15
27 0.5
3 -0.57
4 0.03
5 -0.99
6 -0.18
7 0.18
9 0.33

>  <PUBCHEM_EFFECTIVE_ROTOR_COUNT>
3

>  <PUBCHEM_PHARMACOPHORE_FEATURES>
10
1 1 hydrophobe
1 2 acceptor
1 3 acceptor
1 4 cation
1 4 donor
1 5 cation
1 5 donor
3 2 3 15 anion
5 4 6 8 10 11 rings
6 8 10 12 13 14 16 rings

>  <PUBCHEM_HEAVY_ATOM_COUNT>
16

>  <PUBCHEM_ATOM_DEF_STEREO_COUNT>
0

>  <PUBCHEM_ATOM_UDEF_STEREO_COUNT>
1

>  <PUBCHEM_BOND_DEF_STEREO_COUNT>
0

>  <PUBCHEM_BOND_UDEF_STEREO_COUNT>
0

>  <PUBCHEM_ISOTOPIC_ATOM_COUNT>
0

>  <PUBCHEM_COMPONENT_COUNT>
1

>  <PUBCHEM_CACTVS_TAUTO_COUNT>
1

>  <PUBCHEM_CONFORMER_ID>
000179DF00000001

>  <PUBCHEM_MMFF94_ENERGY>
20.9886

>  <PUBCHEM_FEATURE_SELFOVERLAP>
50.892

>  <PUBCHEM_SHAPE_FINGERPRINT>
11471102 22 18113907017704346890
11640471 11 17845098359332862833
12403259 327 15647322104417206741
12491281 212 18263649618382218608
13140716 1 18189606327898569578
13618510 140 18409452526420472100
13764800 53 18048323532925062602
14787075 74 18124315167178597895
15490181 8 18412833503275010278
15775835 57 18201723929178119937
16945 1 18409454652334331470
192875 21 18339062822754813833
20510252 161 17617664697134019442
21524375 3 18272090525808676422
21665062 11 17834692495224876801
22094290 62 18410011057116016980
23419403 2 14064036600601634441
23557571 272 16485554645227557526
2748010 2 18192158298407538726
305870 269 18338518525844391474
4175511 71 18193564372126828886
474 4 18409165523688807169
526903 126 17838055166860279408
537710 114 18202278130768364809
63268167 104 18338793420873123914
6333272 397 18409730685624180515
7364860 26 18057606464616908766
74978 22 18337957904190356830
7832392 63 17908425753689332281

>  <PUBCHEM_SHAPE_MULTIPOLES>
313.51
5.41
2.92
1.01
0.7
0.2
-0.2
3.22
0.26
-1.3
0
0.39
0.19
-0.91

>  <PUBCHEM_SHAPE_SELFOVERLAP>
660.978

>  <PUBCHEM_SHAPE_VOLUME>
181.1

>  <PUBCHEM_COORDINATE_TYPE>
2
5
10

$$$$
96735
 OpenBabel12092211543D

 27 28  0  0  1  0  0  0  0  0999 V2000
    2.8050    3.0955   -0.5916 Br  0  0  0  0  0  0  0  0  0  0  0  0
   -3.9370   -0.1507    1.2360 O   0  0  0  0  0  0  0  0  0  0  0  0
   -2.6806   -1.9543    1.8191 O   0  0  0  0  0  0  0  0  0  0  0  0
    0.9914   -2.5586    0.3446 N   0  0  0  0  0  0  0  0  0  0  0  0
   -4.2913   -0.9054   -1.1369 N   0  0  0  0  0  0  0  0  0  0  0  0
   -0.5449   -1.2179   -0.5323 C   0  0  0  0  0  0  0  0  0  0  0  0
   -1.8190   -0.7222   -1.0920 C   0  0  0  0  0  0  0  0  0  0  0  0
    0.6466   -0.4639   -0.3410 C   0  0  0  0  0  0  0  0  0  0  0  0
   -3.0700   -1.4488   -0.5395 C   0  0  1  0  0  0  0  0  0  0  0  0
    1.5947   -1.3284    0.2104 C   0  0  0  0  0  0  0  0  0  0  0  0
   -0.3016   -2.5018   -0.1016 C   0  0  0  0  0  0  0  0  0  0  0  0
    1.0106    0.8754   -0.5845 C   0  0  0  0  0  0  0  0  0  0  0  0
    2.8938   -0.9191    0.5315 C   0  0  0  0  0  0  0  0  0  0  0  0
    2.3066    1.2990   -0.2683 C   0  0  0  0  0  0  0  0  0  0  0  0
   -3.1916   -1.2517    0.9585 C   0  0  0  0  0  0  0  0  0  0  0  0
    3.2321    0.4139    0.2811 C   0  0  0  0  0  0  0  0  0  0  0  0
   -1.9039    0.3560   -0.8994 H   0  0  0  0  0  0  0  0  0  0  0  0
   -1.7978   -0.8289   -2.1852 H   0  0  0  0  0  0  0  0  0  0  0  0
   -3.0240   -2.5218   -0.7607 H   0  0  0  0  0  0  0  0  0  0  0  0
   -0.9312   -3.3803   -0.0712 H   0  0  0  0  0  0  0  0  0  0  0  0
    1.4392   -3.3838    0.7188 H   0  0  0  0  0  0  0  0  0  0  0  0
    0.2931    1.5661   -1.0187 H   0  0  0  0  0  0  0  0  0  0  0  0
    3.6149   -1.6075    0.9592 H   0  0  0  0  0  0  0  0  0  0  0  0
   -5.0947   -1.4540   -0.8316 H   0  0  0  0  0  0  0  0  0  0  0  0
   -4.2481   -1.0059   -2.1504 H   0  0  0  0  0  0  0  0  0  0  0  0
    4.2384    0.7476    0.5253 H   0  0  0  0  0  0  0  0  0  0  0  0
   -4.0225   -0.0011    2.2016 H   0  0  0  0  0  0  0  0  0  0  0  0
  1 14  1  0  0  0  0
  2 15  1  0  0  0  0
  2 27  1  0  0  0  0
  3 15  2  0  0  0  0
  4 10  1  0  0  0  0
  4 11  1  0  0  0  0
  4 21  1  0  0  0  0
  5  9  1  0  0  0  0
  5 24  1  0  0  0  0
  5 25  1  0  0  0  0
  6  7  1  0  0  0  0
  6  8  1  0  0  0  0
  6 11  2  0  0  0  0
  7  9  1  0  0  0  0
  7 17  1  0  0  0  0
  7 18  1  0  0  0  0
  8 10  2  0  0  0  0
  8 12  1  0  0  0  0
  9 15  1  0  0  0  0
  9 19  1  6  0  0  0
 10 13  1  0  0  0  0
 11 20  1  0  0  0  0
 12 14  2  0  0  0  0
 12 22  1  0  0  0  0
 13 16  2  0  0  0  0
 13 23  1  0  0  0  0
 14 16  1  0  0  0  0
 16 26  1  0  0  0  0
M  END
>  <PUBCHEM_COMPOUND_CID>
96735

>  <PUBCHEM_CONFORMER_RMSD>
0.6

>  <PUBCHEM_CONFORMER_DIVERSEORDER>
1
21
23
27
7
6
17
16
25
18
8
20
15
13
19
3
26
9
22
14
12
11
4
5
10
2
24

>  <PUBCHEM_MMFF94_PARTIAL_CHARGES>
23
1 -0.11
10 -0.15
11 -0.3
12 -0.15
13 -0.15
14 0.11
15 0.66
16 -0.15
2 -0.65
20 0.15
21 0.27
22 0.15
23 0.15
24 0.36
25 0.36
26 0.15
27 0.5
3 -0.57
4 0.03
5 -0.99
6 -0.18
7 0.18
9 0.33

>  <PUBCHEM_EFFECTIVE_ROTOR_COUNT>
3

>  <PUBCHEM_PHARMACOPHORE_FEATURES>
10
1 1 hydrophobe
1 2 acceptor
1 3 acceptor
1 4 cation
1 4 donor
1 5 cation
1 5 donor
3 2 3 15 anion
5 4 6 8 10 11 rings
6 8 10 12 13 14 16 rings

>  <PUBCHEM_HEAVY_ATOM_COUNT>
16

>  <PUBCHEM_ATOM_DEF_STEREO_COUNT>
0

>  <PUBCHEM_ATOM_UDEF_STEREO_COUNT>
1

>  <PUBCHEM_BOND_DEF_STEREO_COUNT>
0

>  <PUBCHEM_BOND_UDEF_STEREO_COUNT>
0

>  <PUBCHEM_ISOTOPIC_ATOM_COUNT>
0

>  <PUBCHEM_COMPONENT_COUNT>
1

>  <PUBCHEM_CACTVS_TAUTO_COUNT>
1

>  <PUBCHEM_CONFORMER_ID>
000179DF00000001

>  <PUBCHEM_MMFF94_ENERGY>
20.9886

>  <PUBCHEM_FEATURE_SELFOVERLAP>
50.892

>  <PUBCHEM_SHAPE_FINGERPRINT>
11471102 22 18113907017704346890
11640471 11 17845098359332862833
12403259 327 15647322104417206741
12491281 212 18263649618382218608
13140716 1 18189606327898569578
13618510 140 18409452526420472100
13764800 53 18048323532925062602
14787075 74 18124315167178597895
15490181 8 18412833503275010278
15775835 57 18201723929178119937
16945 1 18409454652334331470
192875 21 18339062822754813833
20510252 161 17617664697134019442
21524375 3 18272090525808676422
21665062 11 17834692495224876801
22094290 62 18410011057116016980
23419403 2 14064036600601634441
23557571 272 16485554645227557526
2748010 2 18192158298407538726
305870 269 18338518525844391474
4175511 71 18193564372126828886
474 4 18409165523688807169
526903 126 17838055166860279408
537710 114 18202278130768364809
63268167 104 18338793420873123914
6333272 397 18409730685624180515
7364860 26 18057606464616908766
74978 22 18337957904190356830
7832392 63 17908425753689332281

>  <PUBCHEM_SHAPE_MULTIPOLES>
313.51
5.41
2.92
1.01
0.7
0.2
-0.2
3.22
0.26
-1.3
0
0.39
0.19
-0.91

>  <PUBCHEM_SHAPE_SELFOVERLAP>
660.978

>  <PUBCHEM_SHAPE_VOLUME>
181.1

>  <PUBCHEM_COORDINATE_TYPE>
2
5
10

$$$$
96735
 OpenBabel12092211543D

 27 28  0  0  1  0  0  0  0  0999 V2000
    2.8050    3.0955   -0.5916 Br  0  0  0  0  0  0  0  0  0  0  0  0
   -3.0959   -1.3435    1.1455 O   0  0  0  0  0  0  0  0  0  0  0  0
   -3.6488   -3.4480    0.4845 O   0  0  0  0  0  0  0  0  0  0  0  0
    0.9914   -2.5586    0.3446 N   0  0  0  0  0  0  0  0  0  0  0  0
   -4.1591   -1.2360   -1.7306 N   0  0  0  0  0  0  0  0  0  0  0  0
   -0.5449   -1.2179   -0.5323 C   0  0  0  0  0  0  0  0  0  0  0  0
   -1.8190   -0.7222   -1.0920 C   0  0  0  0  0  0  0  0  0  0  0  0
    0.6466   -0.4639   -0.3410 C   0  0  0  0  0  0  0  0  0  0  0  0
   -2.9298   -1.7985   -1.1685 C   0  0  1  0  0  0  0  0  0  0  0  0
    1.5947   -1.3284    0.2104 C   0  0  0  0  0  0  0  0  0  0  0  0
   -0.3016   -2.5018   -0.1016 C   0  0  0  0  0  0  0  0  0  0  0  0
    1.0106    0.8754   -0.5845 C   0  0  0  0  0  0  0  0  0  0  0  0
    2.8938   -0.9191    0.5315 C   0  0  0  0  0  0  0  0  0  0  0  0
    2.3066    1.2990   -0.2683 C   0  0  0  0  0  0  0  0  0  0  0  0
   -3.2779   -2.3147    0.2135 C   0  0  0  0  0  0  0  0  0  0  0  0
    3.2321    0.4139    0.2811 C   0  0  0  0  0  0  0  0  0  0  0  0
   -2.1709    0.1287   -0.4928 H   0  0  0  0  0  0  0  0  0  0  0  0
   -1.6387   -0.3230   -2.0995 H   0  0  0  0  0  0  0  0  0  0  0  0
   -2.6131   -2.6379   -1.7991 H   0  0  0  0  0  0  0  0  0  0  0  0
   -0.9312   -3.3803   -0.0712 H   0  0  0  0  0  0  0  0  0  0  0  0
    1.4392   -3.3838    0.7188 H   0  0  0  0  0  0  0  0  0  0  0  0
    0.2931    1.5661   -1.0187 H   0  0  0  0  0  0  0  0  0  0  0  0
    3.6149   -1.6075    0.9592 H   0  0  0  0  0  0  0  0  0  0  0  0
   -4.8476   -1.9773   -1.8576 H   0  0  0  0  0  0  0  0  0  0  0  0
   -3.9688   -0.8637   -2.6604 H   0  0  0  0  0  0  0  0  0  0  0  0
    4.2384    0.7476    0.5253 H   0  0  0  0  0  0  0  0  0  0  0  0
   -3.3096   -1.6595    2.0491 H   0  0  0  0  0  0  0  0  0  0  0  0
  1 14  1  0  0  0  0
  2 15  1  0  0  0  0
  2 27  1  0  0  0  0
  3 15  2  0  0  0  0
  4 10  1  0  0  0  0
  4 11  1  0  0  0  0
  4 21  1  0  0  0  0
  5  9  1  0  0  0  0
  5 24  1  0  0  0  0
  5 25  1  0  0  0  0
  6  7  1  0  0  0  0
  6  8  1  0  0  0  0
  6 11  2  0  0  0  0
  7  9  1  0  0  0  0
  7 17  1  0  0  0  0
  7 18  1  0  0  0  0
  8 10  2  0  0  0  0
  8 12  1  0  0  0  0
  9 15  1  0  0  0  0
  9 19  1  6  0  0  0
 10 13  1  0  0  0  0
 11 20  1  0  0  0  0
 12 14  2  0  0  0  0
 12 22  1  0  0  0  0
 13 16  2  0  0  0  0
 13 23  1  0  0  0  0
 14 16  1  0  0  0  0
 16 26  1  0  0  0  0
M  END
>  <PUBCHEM_COMPOUND_CID>
96735

>  <PUBCHEM_CONFORMER_RMSD>
0.6

>  <PUBCHEM_CONFORMER_DIVERSEORDER>
1
21
23
27
7
6
17
16
25
18
8
20
15
13
19
3
26
9
22
14
12
11
4
5
10
2
24

>  <PUBCHEM_MMFF94_PARTIAL_CHARGES>
23
1 -0.11
10 -0.15
11 -0.3
12 -0.15
13 -0.15
14 0.11
15 0.66
16 -0.15
2 -0.65
20 0.15
21 0.27
22 0.15
23 0.15
24 0.36
25 0.36
26 0.15
27 0.5
3 -0.57
4 0.03
5 -0.99
6 -0.18
7 0.18
9 0.33

>  <PUBCHEM_EFFECTIVE_ROTOR_COUNT>
3

>  <PUBCHEM_PHARMACOPHORE_FEATURES>
10
1 1 hydrophobe
1 2 acceptor
1 3 acceptor
1 4 cation
1 4 donor
1 5 cation
1 5 donor
3 2 3 15 anion
5 4 6 8 10 11 rings
6 8 10 12 13 14 16 rings

>  <PUBCHEM_HEAVY_ATOM_COUNT>
16

>  <PUBCHEM_ATOM_DEF_STEREO_COUNT>
0

>  <PUBCHEM_ATOM_UDEF_STEREO_COUNT>
1

>  <PUBCHEM_BOND_DEF_STEREO_COUNT>
0

>  <PUBCHEM_BOND_UDEF_STEREO_COUNT>
0

>  <PUBCHEM_ISOTOPIC_ATOM_COUNT>
0

>  <PUBCHEM_COMPONENT_COUNT>
1

>  <PUBCHEM_CACTVS_TAUTO_COUNT>
1

>  <PUBCHEM_CONFORMER_ID>
000179DF00000001

>  <PUBCHEM_MMFF94_ENERGY>
20.9886

>  <PUBCHEM_FEATURE_SELFOVERLAP>
50.892

>  <PUBCHEM_SHAPE_FINGERPRINT>
11471102 22 18113907017704346890
11640471 11 17845098359332862833
12403259 327 15647322104417206741
12491281 212 18263649618382218608
13140716 1 18189606327898569578
13618510 140 18409452526420472100
13764800 53 18048323532925062602
14787075 74 18124315167178597895
15490181 8 18412833503275010278
15775835 57 18201723929178119937
16945 1 18409454652334331470
192875 21 18339062822754813833
20510252 161 17617664697134019442
21524375 3 18272090525808676422
21665062 11 17834692495224876801
22094290 62 18410011057116016980
23419403 2 14064036600601634441
23557571 272 16485554645227557526
2748010 2 18192158298407538726
305870 269 18338518525844391474
4175511 71 18193564372126828886
474 4 18409165523688807169
526903 126 17838055166860279408
537710 114 18202278130768364809
63268167 104 18338793420873123914
6333272 397 18409730685624180515
7364860 26 18057606464616908766
74978 22 18337957904190356830
7832392 63 17908425753689332281

>  <PUBCHEM_SHAPE_MULTIPOLES>
313.51
5.41
2.92
1.01
0.7
0.2
-0.2
3.22
0.26
-1.3
0
0.39
0.19
-0.91

>  <PUBCHEM_SHAPE_SELFOVERLAP>
660.978

>  <PUBCHEM_SHAPE_VOLUME>
181.1

>  <PUBCHEM_COORDINATE_TYPE>
2
5
10

$$$$
96735
 OpenBabel12092211543D

 27 28  0  0  1  0  0  0  0  0999 V2000
    2.8050    3.0955   -0.5916 Br  0  0  0  0  0  0  0  0  0  0  0  0
   -0.8291    1.1939   -3.0044 O   0  0  0  0  0  0  0  0  0  0  0  0
    0.0233   -0.6176   -4.0830 O   0  0  0  0  0  0  0  0  0  0  0  0
    0.9914   -2.5586    0.3446 N   0  0  0  0  0  0  0  0  0  0  0  0
   -1.8133   -2.2718   -3.0277 N   0  0  0  0  0  0  0  0  0  0  0  0
   -0.5449   -1.2179   -0.5323 C   0  0  0  0  0  0  0  0  0  0  0  0
   -1.8190   -0.7222   -1.0920 C   0  0  0  0  0  0  0  0  0  0  0  0
    0.6466   -0.4639   -0.3410 C   0  0  0  0  0  0  0  0  0  0  0  0
   -1.9253   -0.8671   -2.6302 C   0  0  1  0  0  0  0  0  0  0  0  0
    1.5947   -1.3284    0.2104 C   0  0  0  0  0  0  0  0  0  0  0  0
   -0.3016   -2.5018   -0.1016 C   0  0  0  0  0  0  0  0  0  0  0  0
    1.0106    0.8754   -0.5845 C   0  0  0  0  0  0  0  0  0  0  0  0
    2.8938   -0.9191    0.5315 C   0  0  0  0  0  0  0  0  0  0  0  0
    2.3066    1.2990   -0.2683 C   0  0  0  0  0  0  0  0  0  0  0  0
   -0.7980   -0.1264   -3.3217 C   0  0  0  0  0  0  0  0  0  0  0  0
    3.2321    0.4139    0.2811 C   0  0  0  0  0  0  0  0  0  0  0  0
   -2.6546   -1.2508   -0.6134 H   0  0  0  0  0  0  0  0  0  0  0  0
   -1.9428    0.3359   -0.8236 H   0  0  0  0  0  0  0  0  0  0  0  0
   -2.8864   -0.4809   -2.9901 H   0  0  0  0  0  0  0  0  0  0  0  0
   -0.9312   -3.3803   -0.0712 H   0  0  0  0  0  0  0  0  0  0  0  0
    1.4392   -3.3838    0.7188 H   0  0  0  0  0  0  0  0  0  0  0  0
    0.2931    1.5661   -1.0187 H   0  0  0  0  0  0  0  0  0  0  0  0
    3.6149   -1.6075    0.9592 H   0  0  0  0  0  0  0  0  0  0  0  0
   -1.9760   -2.3574   -4.0306 H   0  0  0  0  0  0  0  0  0  0  0  0
   -2.5484   -2.8133   -2.5741 H   0  0  0  0  0  0  0  0  0  0  0  0
    4.2384    0.7476    0.5253 H   0  0  0  0  0  0  0  0  0  0  0  0
   -0.1107    1.6933   -3.4476 H   0  0  0  0  0  0  0  0  0  0  0  0
  1 14  1  0  0  0  0
  2 15  1  0  0  0  0
  2 27  1  0  0  0  0
  3 15  2  0  0  0  0
  4 10  1  0  0  0  0
  4 11  1  0  0  0  0
  4 21  1  0  0  0  0
  5  9  1  0  0  0  0
  5 24  1  0  0  0  0
  5 25  1  0  0  0  0
  6  7  1  0  0  0  0
  6  8  1  0  0  0  0
  6 11  2  0  0  0  0
  7  9  1  0  0  0  0
  7 17  1  0  0  0  0
  7 18  1  0  0  0  0
  8 10  2  0  0  0  0
  8 12  1  0  0  0  0
  9 15  1  0  0  0  0
  9 19  1  6  0  0  0
 10 13  1  0  0  0  0
 11 20  1  0  0  0  0
 12 14  2  0  0  0  0
 12 22  1  0  0  0  0
 13 16  2  0  0  0  0
 13 23  1  0  0  0  0
 14 16  1  0  0  0  0
 16 26  1  0  0  0  0
M  END
>  <PUBCHEM_COMPOUND_CID>
96735

>  <PUBCHEM_CONFORMER_RMSD>
0.6

>  <PUBCHEM_CONFORMER_DIVERSEORDER>
1
21
23
27
7
6
17
16
25
18
8
20
15
13
19
3
26
9
22
14
12
11
4
5
10
2
24

>  <PUBCHEM_MMFF94_PARTIAL_CHARGES>
23
1 -0.11
10 -0.15
11 -0.3
12 -0.15
13 -0.15
14 0.11
15 0.66
16 -0.15
2 -0.65
20 0.15
21 0.27
22 0.15
23 0.15
24 0.36
25 0.36
26 0.15
27 0.5
3 -0.57
4 0.03
5 -0.99
6 -0.18
7 0.18
9 0.33

>  <PUBCHEM_EFFECTIVE_ROTOR_COUNT>
3

>  <PUBCHEM_PHARMACOPHORE_FEATURES>
10
1 1 hydrophobe
1 2 acceptor
1 3 acceptor
1 4 cation
1 4 donor
1 5 cation
1 5 donor
3 2 3 15 anion
5 4 6 8 10 11 rings
6 8 10 12 13 14 16 rings

>  <PUBCHEM_HEAVY_ATOM_COUNT>
16

>  <PUBCHEM_ATOM_DEF_STEREO_COUNT>
0

>  <PUBCHEM_ATOM_UDEF_STEREO_COUNT>
1

>  <PUBCHEM_BOND_DEF_STEREO_COUNT>
0

>  <PUBCHEM_BOND_UDEF_STEREO_COUNT>
0

>  <PUBCHEM_ISOTOPIC_ATOM_COUNT>
0

>  <PUBCHEM_COMPONENT_COUNT>
1

>  <PUBCHEM_CACTVS_TAUTO_COUNT>
1

>  <PUBCHEM_CONFORMER_ID>
000179DF00000001

>  <PUBCHEM_MMFF94_ENERGY>
20.9886

>  <PUBCHEM_FEATURE_SELFOVERLAP>
50.892

>  <PUBCHEM_SHAPE_FINGERPRINT>
11471102 22 18113907017704346890
11640471 11 17845098359332862833
12403259 327 15647322104417206741
12491281 212 18263649618382218608
13140716 1 18189606327898569578
13618510 140 18409452526420472100
13764800 53 18048323532925062602
14787075 74 18124315167178597895
15490181 8 18412833503275010278
15775835 57 18201723929178119937
16945 1 18409454652334331470
192875 21 18339062822754813833
20510252 161 17617664697134019442
21524375 3 18272090525808676422
21665062 11 17834692495224876801
22094290 62 18410011057116016980
23419403 2 14064036600601634441
23557571 272 16485554645227557526
2748010 2 18192158298407538726
305870 269 18338518525844391474
4175511 71 18193564372126828886
474 4 18409165523688807169
526903 126 17838055166860279408
537710 114 18202278130768364809
63268167 104 18338793420873123914
6333272 397 18409730685624180515
7364860 26 18057606464616908766
74978 22 18337957904190356830
7832392 63 17908425753689332281

>  <PUBCHEM_SHAPE_MULTIPOLES>
313.51
5.41
2.92
1.01
0.7
0.2
-0.2
3.22
0.26
-1.3
0
0.39
0.19
-0.91

>  <PUBCHEM_SHAPE_SELFOVERLAP>
660.978

>  <PUBCHEM_SHAPE_VOLUME>
181.1

>  <PUBCHEM_COORDINATE_TYPE>
2
5
10

$$$$
96735
 OpenBabel12092211543D

 27 28  0  0  1  0  0  0  0  0999 V2000
    2.8050    3.0955   -0.5916 Br  0  0  0  0  0  0  0  0  0  0  0  0
   -5.3735   -1.0126   -0.2688 O   0  0  0  0  0  0  0  0  0  0  0  0
   -4.3740    0.4848   -1.6581 O   0  0  0  0  0  0  0  0  0  0  0  0
    0.9914   -2.5586    0.3446 N   0  0  0  0  0  0  0  0  0  0  0  0
   -3.2438   -2.2471    0.2470 N   0  0  0  0  0  0  0  0  0  0  0  0
   -0.5449   -1.2179   -0.5323 C   0  0  0  0  0  0  0  0  0  0  0  0
   -1.8190   -0.7222   -1.0920 C   0  0  0  0  0  0  0  0  0  0  0  0
    0.6466   -0.4639   -0.3410 C   0  0  0  0  0  0  0  0  0  0  0  0
   -3.0197   -0.8480   -0.1221 C   0  0  1  0  0  0  0  0  0  0  0  0
    1.5947   -1.3284    0.2104 C   0  0  0  0  0  0  0  0  0  0  0  0
   -0.3016   -2.5018   -0.1016 C   0  0  0  0  0  0  0  0  0  0  0  0
    1.0106    0.8754   -0.5845 C   0  0  0  0  0  0  0  0  0  0  0  0
    2.8938   -0.9191    0.5315 C   0  0  0  0  0  0  0  0  0  0  0  0
    2.3066    1.2990   -0.2683 C   0  0  0  0  0  0  0  0  0  0  0  0
   -4.2964   -0.3593   -0.7767 C   0  0  0  0  0  0  0  0  0  0  0  0
    3.2321    0.4139    0.2811 C   0  0  0  0  0  0  0  0  0  0  0  0
   -1.6977    0.3270   -1.3943 H   0  0  0  0  0  0  0  0  0  0  0  0
   -2.0459   -1.2739   -2.0146 H   0  0  0  0  0  0  0  0  0  0  0  0
   -2.8395   -0.2728    0.7940 H   0  0  0  0  0  0  0  0  0  0  0  0
   -0.9312   -3.3803   -0.0712 H   0  0  0  0  0  0  0  0  0  0  0  0
    1.4392   -3.3838    0.7188 H   0  0  0  0  0  0  0  0  0  0  0  0
    0.2931    1.5661   -1.0187 H   0  0  0  0  0  0  0  0  0  0  0  0
    3.6149   -1.6075    0.9592 H   0  0  0  0  0  0  0  0  0  0  0  0
   -3.9767   -2.3011    0.9537 H   0  0  0  0  0  0  0  0  0  0  0  0
   -2.4021   -2.6231    0.6823 H   0  0  0  0  0  0  0  0  0  0  0  0
    4.2384    0.7476    0.5253 H   0  0  0  0  0  0  0  0  0  0  0  0
   -6.2107   -0.7153   -0.6845 H   0  0  0  0  0  0  0  0  0  0  0  0
  1 14  1  0  0  0  0
  2 15  1  0  0  0  0
  2 27  1  0  0  0  0
  3 15  2  0  0  0  0
  4 10  1  0  0  0  0
  4 11  1  0  0  0  0
  4 21  1  0  0  0  0
  5  9  1  0  0  0  0
  5 24  1  0  0  0  0
  5 25  1  0  0  0  0
  6  7  1  0  0  0  0
  6  8  1  0  0  0  0
  6 11  2  0  0  0  0
  7  9  1  0  0  0  0
  7 17  1  0  0  0  0
  7 18  1  0  0  0  0
  8 10  2  0  0  0  0
  8 12  1  0  0  0  0
  9 15  1  0  0  0  0
  9 19  1  1  0  0  0
 10 13  1  0  0  0  0
 11 20  1  0  0  0  0
 12 14  2  0  0  0  0
 12 22  1  0  0  0  0
 13 16  2  0  0  0  0
 13 23  1  0  0  0  0
 14 16  1  0  0  0  0
 16 26  1  0  0  0  0
M  END
>  <PUBCHEM_COMPOUND_CID>
96735

>  <PUBCHEM_CONFORMER_RMSD>
0.6

>  <PUBCHEM_CONFORMER_DIVERSEORDER>
1
21
23
27
7
6
17
16
25
18
8
20
15
13
19
3
26
9
22
14
12
11
4
5
10
2
24

>  <PUBCHEM_MMFF94_PARTIAL_CHARGES>
23
1 -0.11
10 -0.15
11 -0.3
12 -0.15
13 -0.15
14 0.11
15 0.66
16 -0.15
2 -0.65
20 0.15
21 0.27
22 0.15
23 0.15
24 0.36
25 0.36
26 0.15
27 0.5
3 -0.57
4 0.03
5 -0.99
6 -0.18
7 0.18
9 0.33

>  <PUBCHEM_EFFECTIVE_ROTOR_COUNT>
3

>  <PUBCHEM_PHARMACOPHORE_FEATURES>
10
1 1 hydrophobe
1 2 acceptor
1 3 acceptor
1 4 cation
1 4 donor
1 5 cation
1 5 donor
3 2 3 15 anion
5 4 6 8 10 11 rings
6 8 10 12 13 14 16 rings

>  <PUBCHEM_HEAVY_ATOM_COUNT>
16

>  <PUBCHEM_ATOM_DEF_STEREO_COUNT>
0

>  <PUBCHEM_ATOM_UDEF_STEREO_COUNT>
1

>  <PUBCHEM_BOND_DEF_STEREO_COUNT>
0

>  <PUBCHEM_BOND_UDEF_STEREO_COUNT>
0

>  <PUBCHEM_ISOTOPIC_ATOM_COUNT>
0

>  <PUBCHEM_COMPONENT_COUNT>
1

>  <PUBCHEM_CACTVS_TAUTO_COUNT>
1

>  <PUBCHEM_CONFORMER_ID>
000179DF00000001

>  <PUBCHEM_MMFF94_ENERGY>
20.9886

>  <PUBCHEM_FEATURE_SELFOVERLAP>
50.892

>  <PUBCHEM_SHAPE_FINGERPRINT>
11471102 22 18113907017704346890
11640471 11 17845098359332862833
12403259 327 15647322104417206741
12491281 212 18263649618382218608
13140716 1 18189606327898569578
13618510 140 18409452526420472100
13764800 53 18048323532925062602
14787075 74 18124315167178597895
15490181 8 18412833503275010278
15775835 57 18201723929178119937
16945 1 18409454652334331470
192875 21 18339062822754813833
20510252 161 17617664697134019442
21524375 3 18272090525808676422
21665062 11 17834692495224876801
22094290 62 18410011057116016980
23419403 2 14064036600601634441
23557571 272 16485554645227557526
2748010 2 18192158298407538726
305870 269 18338518525844391474
4175511 71 18193564372126828886
474 4 18409165523688807169
526903 126 17838055166860279408
537710 114 18202278130768364809
63268167 104 18338793420873123914
6333272 397 18409730685624180515
7364860 26 18057606464616908766
74978 22 18337957904190356830
7832392 63 17908425753689332281

>  <PUBCHEM_SHAPE_MULTIPOLES>
313.51
5.41
2.92
1.01
0.7
0.2
-0.2
3.22
0.26
-1.3
0
0.39
0.19
-0.91

>  <PUBCHEM_SHAPE_SELFOVERLAP>
660.978

>  <PUBCHEM_SHAPE_VOLUME>
181.1

>  <PUBCHEM_COORDINATE_TYPE>
2
5
10

$$$$
96735
 OpenBabel12092211543D

 27 28  0  0  1  0  0  0  0  0999 V2000
    2.8050    3.0955   -0.5916 Br  0  0  0  0  0  0  0  0  0  0  0  0
   -4.2071   -1.9323    0.6327 O   0  0  0  0  0  0  0  0  0  0  0  0
   -2.5306   -1.3847    2.0683 O   0  0  0  0  0  0  0  0  0  0  0  0
    0.9914   -2.5586    0.3446 N   0  0  0  0  0  0  0  0  0  0  0  0
   -2.1844    0.9673    0.6857 N   0  0  0  0  0  0  0  0  0  0  0  0
   -0.5449   -1.2179   -0.5323 C   0  0  0  0  0  0  0  0  0  0  0  0
   -1.8190   -0.7222   -1.0920 C   0  0  0  0  0  0  0  0  0  0  0  0
    0.6466   -0.4639   -0.3410 C   0  0  0  0  0  0  0  0  0  0  0  0
   -2.7922   -0.1573   -0.0281 C   0  0  1  0  0  0  0  0  0  0  0  0
    1.5947   -1.3284    0.2104 C   0  0  0  0  0  0  0  0  0  0  0  0
   -0.3016   -2.5018   -0.1016 C   0  0  0  0  0  0  0  0  0  0  0  0
    1.0106    0.8754   -0.5845 C   0  0  0  0  0  0  0  0  0  0  0  0
    2.8938   -0.9191    0.5315 C   0  0  0  0  0  0  0  0  0  0  0  0
    2.3066    1.2990   -0.2683 C   0  0  0  0  0  0  0  0  0  0  0  0
   -3.1231   -1.2078    1.0133 C   0  0  0  0  0  0  0  0  0  0  0  0
    3.2321    0.4139    0.2811 C   0  0  0  0  0  0  0  0  0  0  0  0
   -1.6078    0.0494   -1.8449 H   0  0  0  0  0  0  0  0  0  0  0  0
   -2.3164   -1.5386   -1.6333 H   0  0  0  0  0  0  0  0  0  0  0  0
   -3.7198    0.1913   -0.4978 H   0  0  0  0  0  0  0  0  0  0  0  0
   -0.9312   -3.3803   -0.0712 H   0  0  0  0  0  0  0  0  0  0  0  0
    1.4392   -3.3838    0.7188 H   0  0  0  0  0  0  0  0  0  0  0  0
    0.2931    1.5661   -1.0187 H   0  0  0  0  0  0  0  0  0  0  0  0
    3.6149   -1.6075    0.9592 H   0  0  0  0  0  0  0  0  0  0  0  0
   -2.8696    1.3828    1.3161 H   0  0  0  0  0  0  0  0  0  0  0  0
   -1.9330    1.6970    0.0196 H   0  0  0  0  0  0  0  0  0  0  0  0
    4.2384    0.7476    0.5253 H   0  0  0  0  0  0  0  0  0  0  0  0
   -4.4424   -2.6145    1.2971 H   0  0  0  0  0  0  0  0  0  0  0  0
  1 14  1  0  0  0  0
  2 15  1  0  0  0  0
  2 27  1  0  0  0  0
  3 15  2  0  0  0  0
  4 10  1  0  0  0  0
  4 11  1  0  0  0  0
  4 21  1  0  0  0  0
  5  9  1  0  0  0  0
  5 24  1  0  0  0  0
  5 25  1  0  0  0  0
  6  7  1  0  0  0  0
  6  8  1  0  0  0  0
  6 11  2  0  0  0  0
  7  9  1  0  0  0  0
  7 17  1  0  0  0  0
  7 18  1  0  0  0  0
  8 10  2  0  0  0  0
  8 12  1  0  0  0  0
  9 15  1  0  0  0  0
  9 19  1  6  0  0  0
 10 13  1  0  0  0  0
 11 20  1  0  0  0  0
 12 14  2  0  0  0  0
 12 22  1  0  0  0  0
 13 16  2  0  0  0  0
 13 23  1  0  0  0  0
 14 16  1  0  0  0  0
 16 26  1  0  0  0  0
M  END
>  <PUBCHEM_COMPOUND_CID>
96735

>  <PUBCHEM_CONFORMER_RMSD>
0.6

>  <PUBCHEM_CONFORMER_DIVERSEORDER>
1
21
23
27
7
6
17
16
25
18
8
20
15
13
19
3
26
9
22
14
12
11
4
5
10
2
24

>  <PUBCHEM_MMFF94_PARTIAL_CHARGES>
23
1 -0.11
10 -0.15
11 -0.3
12 -0.15
13 -0.15
14 0.11
15 0.66
16 -0.15
2 -0.65
20 0.15
21 0.27
22 0.15
23 0.15
24 0.36
25 0.36
26 0.15
27 0.5
3 -0.57
4 0.03
5 -0.99
6 -0.18
7 0.18
9 0.33

>  <PUBCHEM_EFFECTIVE_ROTOR_COUNT>
3

>  <PUBCHEM_PHARMACOPHORE_FEATURES>
10
1 1 hydrophobe
1 2 acceptor
1 3 acceptor
1 4 cation
1 4 donor
1 5 cation
1 5 donor
3 2 3 15 anion
5 4 6 8 10 11 rings
6 8 10 12 13 14 16 rings

>  <PUBCHEM_HEAVY_ATOM_COUNT>
16

>  <PUBCHEM_ATOM_DEF_STEREO_COUNT>
0

>  <PUBCHEM_ATOM_UDEF_STEREO_COUNT>
1

>  <PUBCHEM_BOND_DEF_STEREO_COUNT>
0

>  <PUBCHEM_BOND_UDEF_STEREO_COUNT>
0

>  <PUBCHEM_ISOTOPIC_ATOM_COUNT>
0

>  <PUBCHEM_COMPONENT_COUNT>
1

>  <PUBCHEM_CACTVS_TAUTO_COUNT>
1

>  <PUBCHEM_CONFORMER_ID>
000179DF00000001

>  <PUBCHEM_MMFF94_ENERGY>
20.9886

>  <PUBCHEM_FEATURE_SELFOVERLAP>
50.892

>  <PUBCHEM_SHAPE_FINGERPRINT>
11471102 22 18113907017704346890
11640471 11 17845098359332862833
12403259 327 15647322104417206741
12491281 212 18263649618382218608
13140716 1 18189606327898569578
13618510 140 18409452526420472100
13764800 53 18048323532925062602
14787075 74 18124315167178597895
15490181 8 18412833503275010278
15775835 57 18201723929178119937
16945 1 18409454652334331470
192875 21 18339062822754813833
20510252 161 17617664697134019442
21524375 3 18272090525808676422
21665062 11 17834692495224876801
22094290 62 18410011057116016980
23419403 2 14064036600601634441
23557571 272 16485554645227557526
2748010 2 18192158298407538726
305870 269 18338518525844391474
4175511 71 18193564372126828886
474 4 18409165523688807169
526903 126 17838055166860279408
537710 114 18202278130768364809
63268167 104 18338793420873123914
6333272 397 18409730685624180515
7364860 26 18057606464616908766
74978 22 18337957904190356830
7832392 63 17908425753689332281

>  <PUBCHEM_SHAPE_MULTIPOLES>
313.51
5.41
2.92
1.01
0.7
0.2
-0.2
3.22
0.26
-1.3
0
0.39
0.19
-0.91

>  <PUBCHEM_SHAPE_SELFOVERLAP>
660.978

>  <PUBCHEM_SHAPE_VOLUME>
181.1

>  <PUBCHEM_COORDINATE_TYPE>
2
5
10

$$$$
96735
 OpenBabel12092211543D

 27 28  0  0  1  0  0  0  0  0999 V2000
    2.8050    3.0955   -0.5916 Br  0  0  0  0  0  0  0  0  0  0  0  0
   -2.7594   -0.7837    2.2513 O   0  0  0  0  0  0  0  0  0  0  0  0
   -3.6238   -2.3020    0.7957 O   0  0  0  0  0  0  0  0  0  0  0  0
    0.9914   -2.5586    0.3446 N   0  0  0  0  0  0  0  0  0  0  0  0
   -2.1844    0.9673    0.6857 N   0  0  0  0  0  0  0  0  0  0  0  0
   -0.5449   -1.2179   -0.5323 C   0  0  0  0  0  0  0  0  0  0  0  0
   -1.8190   -0.7222   -1.0920 C   0  0  0  0  0  0  0  0  0  0  0  0
    0.6466   -0.4639   -0.3410 C   0  0  0  0  0  0  0  0  0  0  0  0
   -2.7922   -0.1573   -0.0281 C   0  0  1  0  0  0  0  0  0  0  0  0
    1.5947   -1.3284    0.2104 C   0  0  0  0  0  0  0  0  0  0  0  0
   -0.3016   -2.5018   -0.1016 C   0  0  0  0  0  0  0  0  0  0  0  0
    1.0106    0.8754   -0.5845 C   0  0  0  0  0  0  0  0  0  0  0  0
    2.8938   -0.9191    0.5315 C   0  0  0  0  0  0  0  0  0  0  0  0
    2.3066    1.2990   -0.2683 C   0  0  0  0  0  0  0  0  0  0  0  0
   -3.1231   -1.2078    1.0133 C   0  0  0  0  0  0  0  0  0  0  0  0
    3.2321    0.4139    0.2811 C   0  0  0  0  0  0  0  0  0  0  0  0
   -1.6078    0.0494   -1.8449 H   0  0  0  0  0  0  0  0  0  0  0  0
   -2.3164   -1.5386   -1.6333 H   0  0  0  0  0  0  0  0  0  0  0  0
   -3.7198    0.1913   -0.4978 H   0  0  0  0  0  0  0  0  0  0  0  0
   -0.9312   -3.3803   -0.0712 H   0  0  0  0  0  0  0  0  0  0  0  0
    1.4392   -3.3838    0.7188 H   0  0  0  0  0  0  0  0  0  0  0  0
    0.2931    1.5661   -1.0187 H   0  0  0  0  0  0  0  0  0  0  0  0
    3.6149   -1.6075    0.9592 H   0  0  0  0  0  0  0  0  0  0  0  0
   -2.8696    1.3828    1.3161 H   0  0  0  0  0  0  0  0  0  0  0  0
   -1.9330    1.6970    0.0196 H   0  0  0  0  0  0  0  0  0  0  0  0
    4.2384    0.7476    0.5253 H   0  0  0  0  0  0  0  0  0  0  0  0
   -2.9591   -1.4528    2.9402 H   0  0  0  0  0  0  0  0  0  0  0  0
  1 14  1  0  0  0  0
  2 15  1  0  0  0  0
  2 27  1  0  0  0  0
  3 15  2  0  0  0  0
  4 10  1  0  0  0  0
  4 11  1  0  0  0  0
  4 21  1  0  0  0  0
  5  9  1  0  0  0  0
  5 24  1  0  0  0  0
  5 25  1  0  0  0  0
  6  7  1  0  0  0  0
  6  8  1  0  0  0  0
  6 11  2  0  0  0  0
  7  9  1  0  0  0  0
  7 17  1  0  0  0  0
  7 18  1  0  0  0  0
  8 10  2  0  0  0  0
  8 12  1  0  0  0  0
  9 15  1  0  0  0  0
  9 19  1  6  0  0  0
 10 13  1  0  0  0  0
 11 20  1  0  0  0  0
 12 14  2  0  0  0  0
 12 22  1  0  0  0  0
 13 16  2  0  0  0  0
 13 23  1  0  0  0  0
 14 16  1  0  0  0  0
 16 26  1  0  0  0  0
M  END
>  <PUBCHEM_COMPOUND_CID>
96735

>  <PUBCHEM_CONFORMER_RMSD>
0.6

>  <PUBCHEM_CONFORMER_DIVERSEORDER>
1
21
23
27
7
6
17
16
25
18
8
20
15
13
19
3
26
9
22
14
12
11
4
5
10
2
24

>  <PUBCHEM_MMFF94_PARTIAL_CHARGES>
23
1 -0.11
10 -0.15
11 -0.3
12 -0.15
13 -0.15
14 0.11
15 0.66
16 -0.15
2 -0.65
20 0.15
21 0.27
22 0.15
23 0.15
24 0.36
25 0.36
26 0.15
27 0.5
3 -0.57
4 0.03
5 -0.99
6 -0.18
7 0.18
9 0.33

>  <PUBCHEM_EFFECTIVE_ROTOR_COUNT>
3

>  <PUBCHEM_PHARMACOPHORE_FEATURES>
10
1 1 hydrophobe
1 2 acceptor
1 3 acceptor
1 4 cation
1 4 donor
1 5 cation
1 5 donor
3 2 3 15 anion
5 4 6 8 10 11 rings
6 8 10 12 13 14 16 rings

>  <PUBCHEM_HEAVY_ATOM_COUNT>
16

>  <PUBCHEM_ATOM_DEF_STEREO_COUNT>
0

>  <PUBCHEM_ATOM_UDEF_STEREO_COUNT>
1

>  <PUBCHEM_BOND_DEF_STEREO_COUNT>
0

>  <PUBCHEM_BOND_UDEF_STEREO_COUNT>
0

>  <PUBCHEM_ISOTOPIC_ATOM_COUNT>
0

>  <PUBCHEM_COMPONENT_COUNT>
1

>  <PUBCHEM_CACTVS_TAUTO_COUNT>
1

>  <PUBCHEM_CONFORMER_ID>
000179DF00000001

>  <PUBCHEM_MMFF94_ENERGY>
20.9886

>  <PUBCHEM_FEATURE_SELFOVERLAP>
50.892

>  <PUBCHEM_SHAPE_FINGERPRINT>
11471102 22 18113907017704346890
11640471 11 17845098359332862833
12403259 327 15647322104417206741
12491281 212 18263649618382218608
13140716 1 18189606327898569578
13618510 140 18409452526420472100
13764800 53 18048323532925062602
14787075 74 18124315167178597895
15490181 8 18412833503275010278
15775835 57 18201723929178119937
16945 1 18409454652334331470
192875 21 18339062822754813833
20510252 161 17617664697134019442
21524375 3 18272090525808676422
21665062 11 17834692495224876801
22094290 62 18410011057116016980
23419403 2 14064036600601634441
23557571 272 16485554645227557526
2748010 2 18192158298407538726
305870 269 18338518525844391474
4175511 71 18193564372126828886
474 4 18409165523688807169
526903 126 17838055166860279408
537710 114 18202278130768364809
63268167 104 18338793420873123914
6333272 397 18409730685624180515
7364860 26 18057606464616908766
74978 22 18337957904190356830
7832392 63 17908425753689332281

>  <PUBCHEM_SHAPE_MULTIPOLES>
313.51
5.41
2.92
1.01
0.7
0.2
-0.2
3.22
0.26
-1.3
0
0.39
0.19
-0.91

>  <PUBCHEM_SHAPE_SELFOVERLAP>
660.978

>  <PUBCHEM_SHAPE_VOLUME>
181.1

>  <PUBCHEM_COORDINATE_TYPE>
2
5
10

$$$$
96735
 OpenBabel12092211543D

 27 28  0  0  1  0  0  0  0  0999 V2000
    2.8050    3.0955   -0.5916 Br  0  0  0  0  0  0  0  0  0  0  0  0
   -0.5117   -0.1994   -3.3270 O   0  0  0  0  0  0  0  0  0  0  0  0
   -1.0193   -2.1634   -4.3548 O   0  0  0  0  0  0  0  0  0  0  0  0
    0.9914   -2.5586    0.3446 N   0  0  0  0  0  0  0  0  0  0  0  0
   -2.4565   -2.8906   -2.1116 N   0  0  0  0  0  0  0  0  0  0  0  0
   -0.5449   -1.2179   -0.5323 C   0  0  0  0  0  0  0  0  0  0  0  0
   -1.8190   -0.7222   -1.0920 C   0  0  0  0  0  0  0  0  0  0  0  0
    0.6466   -0.4639   -0.3410 C   0  0  0  0  0  0  0  0  0  0  0  0
   -2.2689   -1.4627   -2.3755 C   0  0  1  0  0  0  0  0  0  0  0  0
    1.5947   -1.3284    0.2104 C   0  0  0  0  0  0  0  0  0  0  0  0
   -0.3016   -2.5018   -0.1016 C   0  0  0  0  0  0  0  0  0  0  0  0
    1.0106    0.8754   -0.5845 C   0  0  0  0  0  0  0  0  0  0  0  0
    2.8938   -0.9191    0.5315 C   0  0  0  0  0  0  0  0  0  0  0  0
    2.3066    1.2990   -0.2683 C   0  0  0  0  0  0  0  0  0  0  0  0
   -1.2150   -1.3538   -3.4595 C   0  0  0  0  0  0  0  0  0  0  0  0
    3.2321    0.4139    0.2811 C   0  0  0  0  0  0  0  0  0  0  0  0
   -2.6044   -0.7990   -0.3277 H   0  0  0  0  0  0  0  0  0  0  0  0
   -1.7224    0.3495   -1.3134 H   0  0  0  0  0  0  0  0  0  0  0  0
   -3.2150   -1.0521   -2.7481 H   0  0  0  0  0  0  0  0  0  0  0  0
   -0.9312   -3.3803   -0.0712 H   0  0  0  0  0  0  0  0  0  0  0  0
    1.4392   -3.3838    0.7188 H   0  0  0  0  0  0  0  0  0  0  0  0
    0.2931    1.5661   -1.0187 H   0  0  0  0  0  0  0  0  0  0  0  0
    3.6149   -1.6075    0.9592 H   0  0  0  0  0  0  0  0  0  0  0  0
   -2.8387   -3.3443   -2.9409 H   0  0  0  0  0  0  0  0  0  0  0  0
   -3.1520   -3.0121   -1.3763 H   0  0  0  0  0  0  0  0  0  0  0  0
    4.2384    0.7476    0.5253 H   0  0  0  0  0  0  0  0  0  0  0  0
    0.1722   -0.1061   -4.0239 H   0  0  0  0  0  0  0  0  0  0  0  0
  1 14  1  0  0  0  0
  2 15  1  0  0  0  0
  2 27  1  0  0  0  0
  3 15  2  0  0  0  0
  4 10  1  0  0  0  0
  4 11  1  0  0  0  0
  4 21  1  0  0  0  0
  5  9  1  0  0  0  0
  5 24  1  0  0  0  0
  5 25  1  0  0  0  0
  6  7  1  0  0  0  0
  6  8  1  0  0  0  0
  6 11  2  0  0  0  0
  7  9  1  0  0  0  0
  7 17  1  0  0  0  0
  7 18  1  0  0  0  0
  8 10  2  0  0  0  0
  8 12  1  0  0  0  0
  9 15  1  0  0  0  0
  9 19  1  6  0  0  0
 10 13  1  0  0  0  0
 11 20  1  0  0  0  0
 12 14  2  0  0  0  0
 12 22  1  0  0  0  0
 13 16  2  0  0  0  0
 13 23  1  0  0  0  0
 14 16  1  0  0  0  0
 16 26  1  0  0  0  0
M  END
>  <PUBCHEM_COMPOUND_CID>
96735

>  <PUBCHEM_CONFORMER_RMSD>
0.6

>  <PUBCHEM_CONFORMER_DIVERSEORDER>
1
21
23
27
7
6
17
16
25
18
8
20
15
13
19
3
26
9
22
14
12
11
4
5
10
2
24

>  <PUBCHEM_MMFF94_PARTIAL_CHARGES>
23
1 -0.11
10 -0.15
11 -0.3
12 -0.15
13 -0.15
14 0.11
15 0.66
16 -0.15
2 -0.65
20 0.15
21 0.27
22 0.15
23 0.15
24 0.36
25 0.36
26 0.15
27 0.5
3 -0.57
4 0.03
5 -0.99
6 -0.18
7 0.18
9 0.33

>  <PUBCHEM_EFFECTIVE_ROTOR_COUNT>
3

>  <PUBCHEM_PHARMACOPHORE_FEATURES>
10
1 1 hydrophobe
1 2 acceptor
1 3 acceptor
1 4 cation
1 4 donor
1 5 cation
1 5 donor
3 2 3 15 anion
5 4 6 8 10 11 rings
6 8 10 12 13 14 16 rings

>  <PUBCHEM_HEAVY_ATOM_COUNT>
16

>  <PUBCHEM_ATOM_DEF_STEREO_COUNT>
0

>  <PUBCHEM_ATOM_UDEF_STEREO_COUNT>
1

>  <PUBCHEM_BOND_DEF_STEREO_COUNT>
0

>  <PUBCHEM_BOND_UDEF_STEREO_COUNT>
0

>  <PUBCHEM_ISOTOPIC_ATOM_COUNT>
0

>  <PUBCHEM_COMPONENT_COUNT>
1

>  <PUBCHEM_CACTVS_TAUTO_COUNT>
1

>  <PUBCHEM_CONFORMER_ID>
000179DF00000001

>  <PUBCHEM_MMFF94_ENERGY>
20.9886

>  <PUBCHEM_FEATURE_SELFOVERLAP>
50.892

>  <PUBCHEM_SHAPE_FINGERPRINT>
11471102 22 18113907017704346890
11640471 11 17845098359332862833
12403259 327 15647322104417206741
12491281 212 18263649618382218608
13140716 1 18189606327898569578
13618510 140 18409452526420472100
13764800 53 18048323532925062602
14787075 74 18124315167178597895
15490181 8 18412833503275010278
15775835 57 18201723929178119937
16945 1 18409454652334331470
192875 21 18339062822754813833
20510252 161 17617664697134019442
21524375 3 18272090525808676422
21665062 11 17834692495224876801
22094290 62 18410011057116016980
23419403 2 14064036600601634441
23557571 272 16485554645227557526
2748010 2 18192158298407538726
305870 269 18338518525844391474
4175511 71 18193564372126828886
474 4 18409165523688807169
526903 126 17838055166860279408
537710 114 18202278130768364809
63268167 104 18338793420873123914
6333272 397 18409730685624180515
7364860 26 18057606464616908766
74978 22 18337957904190356830
7832392 63 17908425753689332281

>  <PUBCHEM_SHAPE_MULTIPOLES>
313.51
5.41
2.92
1.01
0.7
0.2
-0.2
3.22
0.26
-1.3
0
0.39
0.19
-0.91

>  <PUBCHEM_SHAPE_SELFOVERLAP>
660.978

>  <PUBCHEM_SHAPE_VOLUME>
181.1

>  <PUBCHEM_COORDINATE_TYPE>
2
5
10

$$$$
96735
 OpenBabel12092211543D

 27 28  0  0  1  0  0  0  0  0999 V2000
    2.8050    3.0955   -0.5916 Br  0  0  0  0  0  0  0  0  0  0  0  0
   -0.0571   -0.9804   -4.0744 O   0  0  0  0  0  0  0  0  0  0  0  0
   -0.5511    1.0665   -3.2156 O   0  0  0  0  0  0  0  0  0  0  0  0
    0.9914   -2.5586    0.3446 N   0  0  0  0  0  0  0  0  0  0  0  0
   -1.8133   -2.2718   -3.0277 N   0  0  0  0  0  0  0  0  0  0  0  0
   -0.5449   -1.2179   -0.5323 C   0  0  0  0  0  0  0  0  0  0  0  0
   -1.8190   -0.7222   -1.0920 C   0  0  0  0  0  0  0  0  0  0  0  0
    0.6466   -0.4639   -0.3410 C   0  0  0  0  0  0  0  0  0  0  0  0
   -1.9253   -0.8671   -2.6302 C   0  0  1  0  0  0  0  0  0  0  0  0
    1.5947   -1.3284    0.2104 C   0  0  0  0  0  0  0  0  0  0  0  0
   -0.3016   -2.5018   -0.1016 C   0  0  0  0  0  0  0  0  0  0  0  0
    1.0106    0.8754   -0.5845 C   0  0  0  0  0  0  0  0  0  0  0  0
    2.8938   -0.9191    0.5315 C   0  0  0  0  0  0  0  0  0  0  0  0
    2.3066    1.2990   -0.2683 C   0  0  0  0  0  0  0  0  0  0  0  0
   -0.7980   -0.1264   -3.3217 C   0  0  0  0  0  0  0  0  0  0  0  0
    3.2321    0.4139    0.2811 C   0  0  0  0  0  0  0  0  0  0  0  0
   -2.6546   -1.2508   -0.6134 H   0  0  0  0  0  0  0  0  0  0  0  0
   -1.9428    0.3359   -0.8236 H   0  0  0  0  0  0  0  0  0  0  0  0
   -2.8864   -0.4809   -2.9901 H   0  0  0  0  0  0  0  0  0  0  0  0
   -0.9312   -3.3803   -0.0712 H   0  0  0  0  0  0  0  0  0  0  0  0
    1.4392   -3.3838    0.7188 H   0  0  0  0  0  0  0  0  0  0  0  0
    0.2931    1.5661   -1.0187 H   0  0  0  0  0  0  0  0  0  0  0  0
    3.6149   -1.6075    0.9592 H   0  0  0  0  0  0  0  0  0  0  0  0
   -1.9760   -2.3574   -4.0306 H   0  0  0  0  0  0  0  0  0  0  0  0
   -2.5484   -2.8133   -2.5741 H   0  0  0  0  0  0  0  0  0  0  0  0
    4.2384    0.7476    0.5253 H   0  0  0  0  0  0  0  0  0  0  0  0
    0.6830   -0.5215   -4.5259 H   0  0  0  0  0  0  0  0  0  0  0  0
  1 14  1  0  0  0  0
  2 15  1  0  0  0  0
  2 27  1  0  0  0  0
  3 15  2  0  0  0  0
  4 10  1  0  0  0  0
  4 11  1  0  0  0  0
  4 21  1  0  0  0  0
  5  9  1  0  0  0  0
  5 24  1  0  0  0  0
  5 25  1  0  0  0  0
  6  7  1  0  0  0  0
  6  8  1  0  0  0  0
  6 11  2  0  0  0  0
  7  9  1  0  0  0  0
  7 17  1  0  0  0  0
  7 18  1  0  0  0  0
  8 10  2  0  0  0  0
  8 12  1  0  0  0  0
  9 15  1  0  0  0  0
  9 19  1  6  0  0  0
 10 13  1  0  0  0  0
 11 20  1  0  0  0  0
 12 14  2  0  0  0  0
 12 22  1  0  0  0  0
 13 16  2  0  0  0  0
 13 23  1  0  0  0  0
 14 16  1  0  0  0  0
 16 26  1  0  0  0  0
M  END
>  <PUBCHEM_COMPOUND_CID>
96735

>  <PUBCHEM_CONFORMER_RMSD>
0.6

>  <PUBCHEM_CONFORMER_DIVERSEORDER>
1
21
23
27
7
6
17
16
25
18
8
20
15
13
19
3
26
9
22
14
12
11
4
5
10
2
24

>  <PUBCHEM_MMFF94_PARTIAL_CHARGES>
23
1 -0.11
10 -0.15
11 -0.3
12 -0.15
13 -0.15
14 0.11
15 0.66
16 -0.15
2 -0.65
20 0.15
21 0.27
22 0.15
23 0.15
24 0.36
25 0.36
26 0.15
27 0.5
3 -0.57
4 0.03
5 -0.99
6 -0.18
7 0.18
9 0.33

>  <PUBCHEM_EFFECTIVE_ROTOR_COUNT>
3

>  <PUBCHEM_PHARMACOPHORE_FEATURES>
10
1 1 hydrophobe
1 2 acceptor
1 3 acceptor
1 4 cation
1 4 donor
1 5 cation
1 5 donor
3 2 3 15 anion
5 4 6 8 10 11 rings
6 8 10 12 13 14 16 rings

>  <PUBCHEM_HEAVY_ATOM_COUNT>
16

>  <PUBCHEM_ATOM_DEF_STEREO_COUNT>
0

>  <PUBCHEM_ATOM_UDEF_STEREO_COUNT>
1

>  <PUBCHEM_BOND_DEF_STEREO_COUNT>
0

>  <PUBCHEM_BOND_UDEF_STEREO_COUNT>
0

>  <PUBCHEM_ISOTOPIC_ATOM_COUNT>
0

>  <PUBCHEM_COMPONENT_COUNT>
1

>  <PUBCHEM_CACTVS_TAUTO_COUNT>
1

>  <PUBCHEM_CONFORMER_ID>
000179DF00000001

>  <PUBCHEM_MMFF94_ENERGY>
20.9886

>  <PUBCHEM_FEATURE_SELFOVERLAP>
50.892

>  <PUBCHEM_SHAPE_FINGERPRINT>
11471102 22 18113907017704346890
11640471 11 17845098359332862833
12403259 327 15647322104417206741
12491281 212 18263649618382218608
13140716 1 18189606327898569578
13618510 140 18409452526420472100
13764800 53 18048323532925062602
14787075 74 18124315167178597895
15490181 8 18412833503275010278
15775835 57 18201723929178119937
16945 1 18409454652334331470
192875 21 18339062822754813833
20510252 161 17617664697134019442
21524375 3 18272090525808676422
21665062 11 17834692495224876801
22094290 62 18410011057116016980
23419403 2 14064036600601634441
23557571 272 16485554645227557526
2748010 2 18192158298407538726
305870 269 18338518525844391474
4175511 71 18193564372126828886
474 4 18409165523688807169
526903 126 17838055166860279408
537710 114 18202278130768364809
63268167 104 18338793420873123914
6333272 397 18409730685624180515
7364860 26 18057606464616908766
74978 22 18337957904190356830
7832392 63 17908425753689332281

>  <PUBCHEM_SHAPE_MULTIPOLES>
313.51
5.41
2.92
1.01
0.7
0.2
-0.2
3.22
0.26
-1.3
0
0.39
0.19
-0.91

>  <PUBCHEM_SHAPE_SELFOVERLAP>
660.978

>  <PUBCHEM_SHAPE_VOLUME>
181.1

>  <PUBCHEM_COORDINATE_TYPE>
2
5
10

$$$$
96735
 OpenBabel12092211543D

 27 28  0  0  1  0  0  0  0  0999 V2000
    2.8050    3.0955   -0.5916 Br  0  0  0  0  0  0  0  0  0  0  0  0
   -1.6224   -1.9921   -4.5871 O   0  0  0  0  0  0  0  0  0  0  0  0
   -0.1311   -0.7976   -3.3540 O   0  0  0  0  0  0  0  0  0  0  0  0
    0.9914   -2.5586    0.3446 N   0  0  0  0  0  0  0  0  0  0  0  0
   -2.4565   -2.8906   -2.1116 N   0  0  0  0  0  0  0  0  0  0  0  0
   -0.5449   -1.2179   -0.5323 C   0  0  0  0  0  0  0  0  0  0  0  0
   -1.8190   -0.7222   -1.0920 C   0  0  0  0  0  0  0  0  0  0  0  0
    0.6466   -0.4639   -0.3410 C   0  0  0  0  0  0  0  0  0  0  0  0
   -2.2689   -1.4627   -2.3755 C   0  0  1  0  0  0  0  0  0  0  0  0
    1.5947   -1.3284    0.2104 C   0  0  0  0  0  0  0  0  0  0  0  0
   -0.3016   -2.5018   -0.1016 C   0  0  0  0  0  0  0  0  0  0  0  0
    1.0106    0.8754   -0.5845 C   0  0  0  0  0  0  0  0  0  0  0  0
    2.8938   -0.9191    0.5315 C   0  0  0  0  0  0  0  0  0  0  0  0
    2.3066    1.2990   -0.2683 C   0  0  0  0  0  0  0  0  0  0  0  0
   -1.2150   -1.3538   -3.4595 C   0  0  0  0  0  0  0  0  0  0  0  0
    3.2321    0.4139    0.2811 C   0  0  0  0  0  0  0  0  0  0  0  0
   -2.6044   -0.7990   -0.3277 H   0  0  0  0  0  0  0  0  0  0  0  0
   -1.7224    0.3495   -1.3134 H   0  0  0  0  0  0  0  0  0  0  0  0
   -3.2150   -1.0521   -2.7481 H   0  0  0  0  0  0  0  0  0  0  0  0
   -0.9312   -3.3803   -0.0712 H   0  0  0  0  0  0  0  0  0  0  0  0
    1.4392   -3.3838    0.7188 H   0  0  0  0  0  0  0  0  0  0  0  0
    0.2931    1.5661   -1.0187 H   0  0  0  0  0  0  0  0  0  0  0  0
    3.6149   -1.6075    0.9592 H   0  0  0  0  0  0  0  0  0  0  0  0
   -2.8387   -3.3443   -2.9409 H   0  0  0  0  0  0  0  0  0  0  0  0
   -3.1520   -3.0121   -1.3763 H   0  0  0  0  0  0  0  0  0  0  0  0
    4.2384    0.7476    0.5253 H   0  0  0  0  0  0  0  0  0  0  0  0
   -0.9508   -1.9391   -5.3000 H   0  0  0  0  0  0  0  0  0  0  0  0
  1 14  1  0  0  0  0
  2 15  1  0  0  0  0
  2 27  1  0  0  0  0
  3 15  2  0  0  0  0
  4 10  1  0  0  0  0
  4 11  1  0  0  0  0
  4 21  1  0  0  0  0
  5  9  1  0  0  0  0
  5 24  1  0  0  0  0
  5 25  1  0  0  0  0
  6  7  1  0  0  0  0
  6  8  1  0  0  0  0
  6 11  2  0  0  0  0
  7  9  1  0  0  0  0
  7 17  1  0  0  0  0
  7 18  1  0  0  0  0
  8 10  2  0  0  0  0
  8 12  1  0  0  0  0
  9 15  1  0  0  0  0
  9 19  1  6  0  0  0
 10 13  1  0  0  0  0
 11 20  1  0  0  0  0
 12 14  2  0  0  0  0
 12 22  1  0  0  0  0
 13 16  2  0  0  0  0
 13 23  1  0  0  0  0
 14 16  1  0  0  0  0
 16 26  1  0  0  0  0
M  END
>  <PUBCHEM_COMPOUND_CID>
96735

>  <PUBCHEM_CONFORMER_RMSD>
0.6

>  <PUBCHEM_CONFORMER_DIVERSEORDER>
1
21
23
27
7
6
17
16
25
18
8
20
15
13
19
3
26
9
22
14
12
11
4
5
10
2
24

>  <PUBCHEM_MMFF94_PARTIAL_CHARGES>
23
1 -0.11
10 -0.15
11 -0.3
12 -0.15
13 -0.15
14 0.11
15 0.66
16 -0.15
2 -0.65
20 0.15
21 0.27
22 0.15
23 0.15
24 0.36
25 0.36
26 0.15
27 0.5
3 -0.57
4 0.03
5 -0.99
6 -0.18
7 0.18
9 0.33

>  <PUBCHEM_EFFECTIVE_ROTOR_COUNT>
3

>  <PUBCHEM_PHARMACOPHORE_FEATURES>
10
1 1 hydrophobe
1 2 acceptor
1 3 acceptor
1 4 cation
1 4 donor
1 5 cation
1 5 donor
3 2 3 15 anion
5 4 6 8 10 11 rings
6 8 10 12 13 14 16 rings

>  <PUBCHEM_HEAVY_ATOM_COUNT>
16

>  <PUBCHEM_ATOM_DEF_STEREO_COUNT>
0

>  <PUBCHEM_ATOM_UDEF_STEREO_COUNT>
1

>  <PUBCHEM_BOND_DEF_STEREO_COUNT>
0

>  <PUBCHEM_BOND_UDEF_STEREO_COUNT>
0

>  <PUBCHEM_ISOTOPIC_ATOM_COUNT>
0

>  <PUBCHEM_COMPONENT_COUNT>
1

>  <PUBCHEM_CACTVS_TAUTO_COUNT>
1

>  <PUBCHEM_CONFORMER_ID>
000179DF00000001

>  <PUBCHEM_MMFF94_ENERGY>
20.9886

>  <PUBCHEM_FEATURE_SELFOVERLAP>
50.892

>  <PUBCHEM_SHAPE_FINGERPRINT>
11471102 22 18113907017704346890
11640471 11 17845098359332862833
12403259 327 15647322104417206741
12491281 212 18263649618382218608
13140716 1 18189606327898569578
13618510 140 18409452526420472100
13764800 53 18048323532925062602
14787075 74 18124315167178597895
15490181 8 18412833503275010278
15775835 57 18201723929178119937
16945 1 18409454652334331470
192875 21 18339062822754813833
20510252 161 17617664697134019442
21524375 3 18272090525808676422
21665062 11 17834692495224876801
22094290 62 18410011057116016980
23419403 2 14064036600601634441
23557571 272 16485554645227557526
2748010 2 18192158298407538726
305870 269 18338518525844391474
4175511 71 18193564372126828886
474 4 18409165523688807169
526903 126 17838055166860279408
537710 114 18202278130768364809
63268167 104 18338793420873123914
6333272 397 18409730685624180515
7364860 26 18057606464616908766
74978 22 18337957904190356830
7832392 63 17908425753689332281

>  <PUBCHEM_SHAPE_MULTIPOLES>
313.51
5.41
2.92
1.01
0.7
0.2
-0.2
3.22
0.26
-1.3
0
0.39
0.19
-0.91

>  <PUBCHEM_SHAPE_SELFOVERLAP>
660.978

>  <PUBCHEM_SHAPE_VOLUME>
181.1

>  <PUBCHEM_COORDINATE_TYPE>
2
5
10

$$$$
96735
 OpenBabel12092211543D

 27 28  0  0  1  0  0  0  0  0999 V2000
    2.8050    3.0955   -0.5916 Br  0  0  0  0  0  0  0  0  0  0  0  0
   -1.3597   -3.6427   -2.2759 O   0  0  0  0  0  0  0  0  0  0  0  0
   -3.5692   -3.4427   -1.7766 O   0  0  0  0  0  0  0  0  0  0  0  0
    0.9914   -2.5586    0.3446 N   0  0  0  0  0  0  0  0  0  0  0  0
   -3.5353   -0.9196   -2.8706 N   0  0  0  0  0  0  0  0  0  0  0  0
   -0.5449   -1.2179   -0.5323 C   0  0  0  0  0  0  0  0  0  0  0  0
   -1.8190   -0.7222   -1.0920 C   0  0  0  0  0  0  0  0  0  0  0  0
    0.6466   -0.4639   -0.3410 C   0  0  0  0  0  0  0  0  0  0  0  0
   -2.2689   -1.4627   -2.3755 C   0  0  1  0  0  0  0  0  0  0  0  0
    1.5947   -1.3284    0.2104 C   0  0  0  0  0  0  0  0  0  0  0  0
   -0.3016   -2.5018   -0.1016 C   0  0  0  0  0  0  0  0  0  0  0  0
    1.0106    0.8754   -0.5845 C   0  0  0  0  0  0  0  0  0  0  0  0
    2.8938   -0.9191    0.5315 C   0  0  0  0  0  0  0  0  0  0  0  0
    2.3066    1.2990   -0.2683 C   0  0  0  0  0  0  0  0  0  0  0  0
   -2.5042   -2.9338   -2.0961 C   0  0  0  0  0  0  0  0  0  0  0  0
    3.2321    0.4139    0.2811 C   0  0  0  0  0  0  0  0  0  0  0  0
   -2.6044   -0.7990   -0.3277 H   0  0  0  0  0  0  0  0  0  0  0  0
   -1.7224    0.3495   -1.3134 H   0  0  0  0  0  0  0  0  0  0  0  0
   -1.5156   -1.3605   -3.1659 H   0  0  0  0  0  0  0  0  0  0  0  0
   -0.9312   -3.3803   -0.0712 H   0  0  0  0  0  0  0  0  0  0  0  0
    1.4392   -3.3838    0.7188 H   0  0  0  0  0  0  0  0  0  0  0  0
    0.2931    1.5661   -1.0187 H   0  0  0  0  0  0  0  0  0  0  0  0
    3.6149   -1.6075    0.9592 H   0  0  0  0  0  0  0  0  0  0  0  0
   -3.7689   -1.3553   -3.7623 H   0  0  0  0  0  0  0  0  0  0  0  0
   -3.4271    0.0759   -3.0614 H   0  0  0  0  0  0  0  0  0  0  0  0
    4.2384    0.7476    0.5253 H   0  0  0  0  0  0  0  0  0  0  0  0
   -1.4921   -4.5997   -2.1063 H   0  0  0  0  0  0  0  0  0  0  0  0
  1 14  1  0  0  0  0
  2 15  1  0  0  0  0
  2 27  1  0  0  0  0
  3 15  2  0  0  0  0
  4 10  1  0  0  0  0
  4 11  1  0  0  0  0
  4 21  1  0  0  0  0
  5  9  1  0  0  0  0
  5 24  1  0  0  0  0
  5 25  1  0  0  0  0
  6  7  1  0  0  0  0
  6  8  1  0  0  0  0
  6 11  2  0  0  0  0
  7  9  1  0  0  0  0
  7 17  1  0  0  0  0
  7 18  1  0  0  0  0
  8 10  2  0  0  0  0
  8 12  1  0  0  0  0
  9 15  1  0  0  0  0
  9 19  1  6  0  0  0
 10 13  1  0  0  0  0
 11 20  1  0  0  0  0
 12 14  2  0  0  0  0
 12 22  1  0  0  0  0
 13 16  2  0  0  0  0
 13 23  1  0  0  0  0
 14 16  1  0  0  0  0
 16 26  1  0  0  0  0
M  END
>  <PUBCHEM_COMPOUND_CID>
96735

>  <PUBCHEM_CONFORMER_RMSD>
0.6

>  <PUBCHEM_CONFORMER_DIVERSEORDER>
1
21
23
27
7
6
17
16
25
18
8
20
15
13
19
3
26
9
22
14
12
11
4
5
10
2
24

>  <PUBCHEM_MMFF94_PARTIAL_CHARGES>
23
1 -0.11
10 -0.15
11 -0.3
12 -0.15
13 -0.15
14 0.11
15 0.66
16 -0.15
2 -0.65
20 0.15
21 0.27
22 0.15
23 0.15
24 0.36
25 0.36
26 0.15
27 0.5
3 -0.57
4 0.03
5 -0.99
6 -0.18
7 0.18
9 0.33

>  <PUBCHEM_EFFECTIVE_ROTOR_COUNT>
3

>  <PUBCHEM_PHARMACOPHORE_FEATURES>
10
1 1 hydrophobe
1 2 acceptor
1 3 acceptor
1 4 cation
1 4 donor
1 5 cation
1 5 donor
3 2 3 15 anion
5 4 6 8 10 11 rings
6 8 10 12 13 14 16 rings

>  <PUBCHEM_HEAVY_ATOM_COUNT>
16

>  <PUBCHEM_ATOM_DEF_STEREO_COUNT>
0

>  <PUBCHEM_ATOM_UDEF_STEREO_COUNT>
1

>  <PUBCHEM_BOND_DEF_STEREO_COUNT>
0

>  <PUBCHEM_BOND_UDEF_STEREO_COUNT>
0

>  <PUBCHEM_ISOTOPIC_ATOM_COUNT>
0

>  <PUBCHEM_COMPONENT_COUNT>
1

>  <PUBCHEM_CACTVS_TAUTO_COUNT>
1

>  <PUBCHEM_CONFORMER_ID>
000179DF00000001

>  <PUBCHEM_MMFF94_ENERGY>
20.9886

>  <PUBCHEM_FEATURE_SELFOVERLAP>
50.892

>  <PUBCHEM_SHAPE_FINGERPRINT>
11471102 22 18113907017704346890
11640471 11 17845098359332862833
12403259 327 15647322104417206741
12491281 212 18263649618382218608
13140716 1 18189606327898569578
13618510 140 18409452526420472100
13764800 53 18048323532925062602
14787075 74 18124315167178597895
15490181 8 18412833503275010278
15775835 57 18201723929178119937
16945 1 18409454652334331470
192875 21 18339062822754813833
20510252 161 17617664697134019442
21524375 3 18272090525808676422
21665062 11 17834692495224876801
22094290 62 18410011057116016980
23419403 2 14064036600601634441
23557571 272 16485554645227557526
2748010 2 18192158298407538726
305870 269 18338518525844391474
4175511 71 18193564372126828886
474 4 18409165523688807169
526903 126 17838055166860279408
537710 114 18202278130768364809
63268167 104 18338793420873123914
6333272 397 18409730685624180515
7364860 26 18057606464616908766
74978 22 18337957904190356830
7832392 63 17908425753689332281

>  <PUBCHEM_SHAPE_MULTIPOLES>
313.51
5.41
2.92
1.01
0.7
0.2
-0.2
3.22
0.26
-1.3
0
0.39
0.19
-0.91

>  <PUBCHEM_SHAPE_SELFOVERLAP>
660.978

>  <PUBCHEM_SHAPE_VOLUME>
181.1

>  <PUBCHEM_COORDINATE_TYPE>
2
5
10

$$$$
96735
 OpenBabel12092211543D

 27 28  0  0  1  0  0  0  0  0999 V2000
    2.8050    3.0955   -0.5916 Br  0  0  0  0  0  0  0  0  0  0  0  0
   -3.1276   -2.4168    1.6433 O   0  0  0  0  0  0  0  0  0  0  0  0
   -3.4354   -3.2323   -0.4571 O   0  0  0  0  0  0  0  0  0  0  0  0
    0.9914   -2.5586    0.3446 N   0  0  0  0  0  0  0  0  0  0  0  0
   -2.7778   -0.0854    1.1042 N   0  0  0  0  0  0  0  0  0  0  0  0
   -0.5449   -1.2179   -0.5323 C   0  0  0  0  0  0  0  0  0  0  0  0
   -1.8190   -0.7222   -1.0920 C   0  0  0  0  0  0  0  0  0  0  0  0
    0.6466   -0.4639   -0.3410 C   0  0  0  0  0  0  0  0  0  0  0  0
   -3.0197   -0.8480   -0.1221 C   0  0  1  0  0  0  0  0  0  0  0  0
    1.5947   -1.3284    0.2104 C   0  0  0  0  0  0  0  0  0  0  0  0
   -0.3016   -2.5018   -0.1016 C   0  0  0  0  0  0  0  0  0  0  0  0
    1.0106    0.8754   -0.5845 C   0  0  0  0  0  0  0  0  0  0  0  0
    2.8938   -0.9191    0.5315 C   0  0  0  0  0  0  0  0  0  0  0  0
    2.3066    1.2990   -0.2683 C   0  0  0  0  0  0  0  0  0  0  0  0
   -3.2285   -2.2903    0.2947 C   0  0  0  0  0  0  0  0  0  0  0  0
    3.2321    0.4139    0.2811 C   0  0  0  0  0  0  0  0  0  0  0  0
   -1.6977    0.3270   -1.3943 H   0  0  0  0  0  0  0  0  0  0  0  0
   -2.0459   -1.2739   -2.0146 H   0  0  0  0  0  0  0  0  0  0  0  0
   -3.9367   -0.4701   -0.5898 H   0  0  0  0  0  0  0  0  0  0  0  0
   -0.9312   -3.3803   -0.0712 H   0  0  0  0  0  0  0  0  0  0  0  0
    1.4392   -3.3838    0.7188 H   0  0  0  0  0  0  0  0  0  0  0  0
    0.2931    1.5661   -1.0187 H   0  0  0  0  0  0  0  0  0  0  0  0
    3.6149   -1.6075    0.9592 H   0  0  0  0  0  0  0  0  0  0  0  0
   -3.6125   -0.1052    1.6894 H   0  0  0  0  0  0  0  0  0  0  0  0
   -2.6190    0.8939    0.8700 H   0  0  0  0  0  0  0  0  0  0  0  0
    4.2384    0.7476    0.5253 H   0  0  0  0  0  0  0  0  0  0  0  0
   -3.2532   -3.3452    1.9337 H   0  0  0  0  0  0  0  0  0  0  0  0
  1 14  1  0  0  0  0
  2 15  1  0  0  0  0
  2 27  1  0  0  0  0
  3 15  2  0  0  0  0
  4 10  1  0  0  0  0
  4 11  1  0  0  0  0
  4 21  1  0  0  0  0
  5  9  1  0  0  0  0
  5 24  1  0  0  0  0
  5 25  1  0  0  0  0
  6  7  1  0  0  0  0
  6  8  1  0  0  0  0
  6 11  2  0  0  0  0
  7  9  1  0  0  0  0
  7 17  1  0  0  0  0
  7 18  1  0  0  0  0
  8 10  2  0  0  0  0
  8 12  1  0  0  0  0
  9 15  1  0  0  0  0
  9 19  1  6  0  0  0
 10 13  1  0  0  0  0
 11 20  1  0  0  0  0
 12 14  2  0  0  0  0
 12 22  1  0  0  0  0
 13 16  2  0  0  0  0
 13 23  1  0  0  0  0
 14 16  1  0  0  0  0
 16 26  1  0  0  0  0
M  END
>  <PUBCHEM_COMPOUND_CID>
96735

>  <PUBCHEM_CONFORMER_RMSD>
0.6

>  <PUBCHEM_CONFORMER_DIVERSEORDER>
1
21
23
27
7
6
17
16
25
18
8
20
15
13
19
3
26
9
22
14
12
11
4
5
10
2
24

>  <PUBCHEM_MMFF94_PARTIAL_CHARGES>
23
1 -0.11
10 -0.15
11 -0.3
12 -0.15
13 -0.15
14 0.11
15 0.66
16 -0.15
2 -0.65
20 0.15
21 0.27
22 0.15
23 0.15
24 0.36
25 0.36
26 0.15
27 0.5
3 -0.57
4 0.03
5 -0.99
6 -0.18
7 0.18
9 0.33

>  <PUBCHEM_EFFECTIVE_ROTOR_COUNT>
3

>  <PUBCHEM_PHARMACOPHORE_FEATURES>
10
1 1 hydrophobe
1 2 acceptor
1 3 acceptor
1 4 cation
1 4 donor
1 5 cation
1 5 donor
3 2 3 15 anion
5 4 6 8 10 11 rings
6 8 10 12 13 14 16 rings

>  <PUBCHEM_HEAVY_ATOM_COUNT>
16

>  <PUBCHEM_ATOM_DEF_STEREO_COUNT>
0

>  <PUBCHEM_ATOM_UDEF_STEREO_COUNT>
1

>  <PUBCHEM_BOND_DEF_STEREO_COUNT>
0

>  <PUBCHEM_BOND_UDEF_STEREO_COUNT>
0

>  <PUBCHEM_ISOTOPIC_ATOM_COUNT>
0

>  <PUBCHEM_COMPONENT_COUNT>
1

>  <PUBCHEM_CACTVS_TAUTO_COUNT>
1

>  <PUBCHEM_CONFORMER_ID>
000179DF00000001

>  <PUBCHEM_MMFF94_ENERGY>
20.9886

>  <PUBCHEM_FEATURE_SELFOVERLAP>
50.892

>  <PUBCHEM_SHAPE_FINGERPRINT>
11471102 22 18113907017704346890
11640471 11 17845098359332862833
12403259 327 15647322104417206741
12491281 212 18263649618382218608
13140716 1 18189606327898569578
13618510 140 18409452526420472100
13764800 53 18048323532925062602
14787075 74 18124315167178597895
15490181 8 18412833503275010278
15775835 57 18201723929178119937
16945 1 18409454652334331470
192875 21 18339062822754813833
20510252 161 17617664697134019442
21524375 3 18272090525808676422
21665062 11 17834692495224876801
22094290 62 18410011057116016980
23419403 2 14064036600601634441
23557571 272 16485554645227557526
2748010 2 18192158298407538726
305870 269 18338518525844391474
4175511 71 18193564372126828886
474 4 18409165523688807169
526903 126 17838055166860279408
537710 114 18202278130768364809
63268167 104 18338793420873123914
6333272 397 18409730685624180515
7364860 26 18057606464616908766
74978 22 18337957904190356830
7832392 63 17908425753689332281

>  <PUBCHEM_SHAPE_MULTIPOLES>
313.51
5.41
2.92
1.01
0.7
0.2
-0.2
3.22
0.26
-1.3
0
0.39
0.19
-0.91

>  <PUBCHEM_SHAPE_SELFOVERLAP>
660.978

>  <PUBCHEM_SHAPE_VOLUME>
181.1

>  <PUBCHEM_COORDINATE_TYPE>
2
5
10

$$$$
96735
 OpenBabel12092211543D

 27 28  0  0  1  0  0  0  0  0999 V2000
    2.8050    3.0955   -0.5916 Br  0  0  0  0  0  0  0  0  0  0  0  0
   -1.4632    0.0685    1.4032 O   0  0  0  0  0  0  0  0  0  0  0  0
   -3.6597    0.4725    1.8315 O   0  0  0  0  0  0  0  0  0  0  0  0
    0.9914   -2.5586    0.3446 N   0  0  0  0  0  0  0  0  0  0  0  0
   -4.2436   -0.3380   -0.7430 N   0  0  0  0  0  0  0  0  0  0  0  0
   -0.5449   -1.2179   -0.5323 C   0  0  0  0  0  0  0  0  0  0  0  0
   -1.8190   -0.7222   -1.0920 C   0  0  0  0  0  0  0  0  0  0  0  0
    0.6466   -0.4639   -0.3410 C   0  0  0  0  0  0  0  0  0  0  0  0
   -3.0197   -0.8480   -0.1221 C   0  0  1  0  0  0  0  0  0  0  0  0
    1.5947   -1.3284    0.2104 C   0  0  0  0  0  0  0  0  0  0  0  0
   -0.3016   -2.5018   -0.1016 C   0  0  0  0  0  0  0  0  0  0  0  0
    1.0106    0.8754   -0.5845 C   0  0  0  0  0  0  0  0  0  0  0  0
    2.8938   -0.9191    0.5315 C   0  0  0  0  0  0  0  0  0  0  0  0
    2.3066    1.2990   -0.2683 C   0  0  0  0  0  0  0  0  0  0  0  0
   -2.7905   -0.0262    1.1307 C   0  0  0  0  0  0  0  0  0  0  0  0
    3.2321    0.4139    0.2811 C   0  0  0  0  0  0  0  0  0  0  0  0
   -1.6977    0.3270   -1.3943 H   0  0  0  0  0  0  0  0  0  0  0  0
   -2.0459   -1.2739   -2.0146 H   0  0  0  0  0  0  0  0  0  0  0  0
   -3.1837   -1.8956    0.1574 H   0  0  0  0  0  0  0  0  0  0  0  0
   -0.9312   -3.3803   -0.0712 H   0  0  0  0  0  0  0  0  0  0  0  0
    1.4392   -3.3838    0.7188 H   0  0  0  0  0  0  0  0  0  0  0  0
    0.2931    1.5661   -1.0187 H   0  0  0  0  0  0  0  0  0  0  0  0
    3.6149   -1.6075    0.9592 H   0  0  0  0  0  0  0  0  0  0  0  0
   -5.0375   -0.5116   -0.1273 H   0  0  0  0  0  0  0  0  0  0  0  0
   -4.4314   -0.8562   -1.6006 H   0  0  0  0  0  0  0  0  0  0  0  0
    4.2384    0.7476    0.5253 H   0  0  0  0  0  0  0  0  0  0  0  0
   -1.2932    0.5917    2.2153 H   0  0  0  0  0  0  0  0  0  0  0  0
  1 14  1  0  0  0  0
  2 15  1  0  0  0  0
  2 27  1  0  0  0  0
  3 15  2  0  0  0  0
  4 10  1  0  0  0  0
  4 11  1  0  0  0  0
  4 21  1  0  0  0  0
  5  9  1  0  0  0  0
  5 24  1  0  0  0  0
  5 25  1  0  0  0  0
  6  7  1  0  0  0  0
  6  8  1  0  0  0  0
  6 11  2  0  0  0  0
  7  9  1  0  0  0  0
  7 17  1  0  0  0  0
  7 18  1  0  0  0  0
  8 10  2  0  0  0  0
  8 12  1  0  0  0  0
  9 15  1  0  0  0  0
  9 19  1  1  0  0  0
 10 13  1  0  0  0  0
 11 20  1  0  0  0  0
 12 14  2  0  0  0  0
 12 22  1  0  0  0  0
 13 16  2  0  0  0  0
 13 23  1  0  0  0  0
 14 16  1  0  0  0  0
 16 26  1  0  0  0  0
M  END
>  <PUBCHEM_COMPOUND_CID>
96735

>  <PUBCHEM_CONFORMER_RMSD>
0.6

>  <PUBCHEM_CONFORMER_DIVERSEORDER>
1
21
23
27
7
6
17
16
25
18
8
20
15
13
19
3
26
9
22
14
12
11
4
5
10
2
24

>  <PUBCHEM_MMFF94_PARTIAL_CHARGES>
23
1 -0.11
10 -0.15
11 -0.3
12 -0.15
13 -0.15
14 0.11
15 0.66
16 -0.15
2 -0.65
20 0.15
21 0.27
22 0.15
23 0.15
24 0.36
25 0.36
26 0.15
27 0.5
3 -0.57
4 0.03
5 -0.99
6 -0.18
7 0.18
9 0.33

>  <PUBCHEM_EFFECTIVE_ROTOR_COUNT>
3

>  <PUBCHEM_PHARMACOPHORE_FEATURES>
10
1 1 hydrophobe
1 2 acceptor
1 3 acceptor
1 4 cation
1 4 donor
1 5 cation
1 5 donor
3 2 3 15 anion
5 4 6 8 10 11 rings
6 8 10 12 13 14 16 rings

>  <PUBCHEM_HEAVY_ATOM_COUNT>
16

>  <PUBCHEM_ATOM_DEF_STEREO_COUNT>
0

>  <PUBCHEM_ATOM_UDEF_STEREO_COUNT>
1

>  <PUBCHEM_BOND_DEF_STEREO_COUNT>
0

>  <PUBCHEM_BOND_UDEF_STEREO_COUNT>
0

>  <PUBCHEM_ISOTOPIC_ATOM_COUNT>
0

>  <PUBCHEM_COMPONENT_COUNT>
1

>  <PUBCHEM_CACTVS_TAUTO_COUNT>
1

>  <PUBCHEM_CONFORMER_ID>
000179DF00000001

>  <PUBCHEM_MMFF94_ENERGY>
20.9886

>  <PUBCHEM_FEATURE_SELFOVERLAP>
50.892

>  <PUBCHEM_SHAPE_FINGERPRINT>
11471102 22 18113907017704346890
11640471 11 17845098359332862833
12403259 327 15647322104417206741
12491281 212 18263649618382218608
13140716 1 18189606327898569578
13618510 140 18409452526420472100
13764800 53 18048323532925062602
14787075 74 18124315167178597895
15490181 8 18412833503275010278
15775835 57 18201723929178119937
16945 1 18409454652334331470
192875 21 18339062822754813833
20510252 161 17617664697134019442
21524375 3 18272090525808676422
21665062 11 17834692495224876801
22094290 62 18410011057116016980
23419403 2 14064036600601634441
23557571 272 16485554645227557526
2748010 2 18192158298407538726
305870 269 18338518525844391474
4175511 71 18193564372126828886
474 4 18409165523688807169
526903 126 17838055166860279408
537710 114 18202278130768364809
63268167 104 18338793420873123914
6333272 397 18409730685624180515
7364860 26 18057606464616908766
74978 22 18337957904190356830
7832392 63 17908425753689332281

>  <PUBCHEM_SHAPE_MULTIPOLES>
313.51
5.41
2.92
1.01
0.7
0.2
-0.2
3.22
0.26
-1.3
0
0.39
0.19
-0.91

>  <PUBCHEM_SHAPE_SELFOVERLAP>
660.978

>  <PUBCHEM_SHAPE_VOLUME>
181.1

>  <PUBCHEM_COORDINATE_TYPE>
2
5
10

$$$$
96735
 OpenBabel12092211543D

 27 28  0  0  1  0  0  0  0  0999 V2000
    2.8050    3.0955   -0.5916 Br  0  0  0  0  0  0  0  0  0  0  0  0
   -2.2061   -3.6824   -3.2094 O   0  0  0  0  0  0  0  0  0  0  0  0
   -0.9467   -1.8307   -3.6051 O   0  0  0  0  0  0  0  0  0  0  0  0
    0.9914   -2.5586    0.3446 N   0  0  0  0  0  0  0  0  0  0  0  0
   -2.9770   -2.9097   -0.9436 N   0  0  0  0  0  0  0  0  0  0  0  0
   -0.5449   -1.2179   -0.5323 C   0  0  0  0  0  0  0  0  0  0  0  0
   -1.8190   -0.7222   -1.0920 C   0  0  0  0  0  0  0  0  0  0  0  0
    0.6466   -0.4639   -0.3410 C   0  0  0  0  0  0  0  0  0  0  0  0
   -2.6366   -1.8036   -1.8405 C   0  0  1  0  0  0  0  0  0  0  0  0
    1.5947   -1.3284    0.2104 C   0  0  0  0  0  0  0  0  0  0  0  0
   -0.3016   -2.5018   -0.1016 C   0  0  0  0  0  0  0  0  0  0  0  0
    1.0106    0.8754   -0.5845 C   0  0  0  0  0  0  0  0  0  0  0  0
    2.8938   -0.9191    0.5315 C   0  0  0  0  0  0  0  0  0  0  0  0
    2.3066    1.2990   -0.2683 C   0  0  0  0  0  0  0  0  0  0  0  0
   -1.8317   -2.3972   -2.9796 C   0  0  0  0  0  0  0  0  0  0  0  0
    3.2321    0.4139    0.2811 C   0  0  0  0  0  0  0  0  0  0  0  0
   -2.4273   -0.2941   -0.2836 H   0  0  0  0  0  0  0  0  0  0  0  0
   -1.6110    0.1084   -1.7804 H   0  0  0  0  0  0  0  0  0  0  0  0
   -3.5672   -1.3803   -2.2371 H   0  0  0  0  0  0  0  0  0  0  0  0
   -0.9312   -3.3803   -0.0712 H   0  0  0  0  0  0  0  0  0  0  0  0
    1.4392   -3.3838    0.7188 H   0  0  0  0  0  0  0  0  0  0  0  0
    0.2931    1.5661   -1.0187 H   0  0  0  0  0  0  0  0  0  0  0  0
    3.6149   -1.6075    0.9592 H   0  0  0  0  0  0  0  0  0  0  0  0
   -3.5899   -3.5657   -1.4269 H   0  0  0  0  0  0  0  0  0  0  0  0
   -3.5114   -2.5534   -0.1518 H   0  0  0  0  0  0  0  0  0  0  0  0
    4.2384    0.7476    0.5253 H   0  0  0  0  0  0  0  0  0  0  0  0
   -1.6918   -4.0879   -3.9397 H   0  0  0  0  0  0  0  0  0  0  0  0
  1 14  1  0  0  0  0
  2 15  1  0  0  0  0
  2 27  1  0  0  0  0
  3 15  2  0  0  0  0
  4 10  1  0  0  0  0
  4 11  1  0  0  0  0
  4 21  1  0  0  0  0
  5  9  1  0  0  0  0
  5 24  1  0  0  0  0
  5 25  1  0  0  0  0
  6  7  1  0  0  0  0
  6  8  1  0  0  0  0
  6 11  2  0  0  0  0
  7  9  1  0  0  0  0
  7 17  1  0  0  0  0
  7 18  1  0  0  0  0
  8 10  2  0  0  0  0
  8 12  1  0  0  0  0
  9 15  1  0  0  0  0
  9 19  1  6  0  0  0
 10 13  1  0  0  0  0
 11 20  1  0  0  0  0
 12 14  2  0  0  0  0
 12 22  1  0  0  0  0
 13 16  2  0  0  0  0
 13 23  1  0  0  0  0
 14 16  1  0  0  0  0
 16 26  1  0  0  0  0
M  END
>  <PUBCHEM_COMPOUND_CID>
96735

>  <PUBCHEM_CONFORMER_RMSD>
0.6

>  <PUBCHEM_CONFORMER_DIVERSEORDER>
1
21
23
27
7
6
17
16
25
18
8
20
15
13
19
3
26
9
22
14
12
11
4
5
10
2
24

>  <PUBCHEM_MMFF94_PARTIAL_CHARGES>
23
1 -0.11
10 -0.15
11 -0.3
12 -0.15
13 -0.15
14 0.11
15 0.66
16 -0.15
2 -0.65
20 0.15
21 0.27
22 0.15
23 0.15
24 0.36
25 0.36
26 0.15
27 0.5
3 -0.57
4 0.03
5 -0.99
6 -0.18
7 0.18
9 0.33

>  <PUBCHEM_EFFECTIVE_ROTOR_COUNT>
3

>  <PUBCHEM_PHARMACOPHORE_FEATURES>
10
1 1 hydrophobe
1 2 acceptor
1 3 acceptor
1 4 cation
1 4 donor
1 5 cation
1 5 donor
3 2 3 15 anion
5 4 6 8 10 11 rings
6 8 10 12 13 14 16 rings

>  <PUBCHEM_HEAVY_ATOM_COUNT>
16

>  <PUBCHEM_ATOM_DEF_STEREO_COUNT>
0

>  <PUBCHEM_ATOM_UDEF_STEREO_COUNT>
1

>  <PUBCHEM_BOND_DEF_STEREO_COUNT>
0

>  <PUBCHEM_BOND_UDEF_STEREO_COUNT>
0

>  <PUBCHEM_ISOTOPIC_ATOM_COUNT>
0

>  <PUBCHEM_COMPONENT_COUNT>
1

>  <PUBCHEM_CACTVS_TAUTO_COUNT>
1

>  <PUBCHEM_CONFORMER_ID>
000179DF00000001

>  <PUBCHEM_MMFF94_ENERGY>
20.9886

>  <PUBCHEM_FEATURE_SELFOVERLAP>
50.892

>  <PUBCHEM_SHAPE_FINGERPRINT>
11471102 22 18113907017704346890
11640471 11 17845098359332862833
12403259 327 15647322104417206741
12491281 212 18263649618382218608
13140716 1 18189606327898569578
13618510 140 18409452526420472100
13764800 53 18048323532925062602
14787075 74 18124315167178597895
15490181 8 18412833503275010278
15775835 57 18201723929178119937
16945 1 18409454652334331470
192875 21 18339062822754813833
20510252 161 17617664697134019442
21524375 3 18272090525808676422
21665062 11 17834692495224876801
22094290 62 18410011057116016980
23419403 2 14064036600601634441
23557571 272 16485554645227557526
2748010 2 18192158298407538726
305870 269 18338518525844391474
4175511 71 18193564372126828886
474 4 18409165523688807169
526903 126 17838055166860279408
537710 114 18202278130768364809
63268167 104 18338793420873123914
6333272 397 18409730685624180515
7364860 26 18057606464616908766
74978 22 18337957904190356830
7832392 63 17908425753689332281

>  <PUBCHEM_SHAPE_MULTIPOLES>
313.51
5.41
2.92
1.01
0.7
0.2
-0.2
3.22
0.26
-1.3
0
0.39
0.19
-0.91

>  <PUBCHEM_SHAPE_SELFOVERLAP>
660.978

>  <PUBCHEM_SHAPE_VOLUME>
181.1

>  <PUBCHEM_COORDINATE_TYPE>
2
5
10

$$$$
96735
 OpenBabel12092211543D

 27 28  0  0  1  0  0  0  0  0999 V2000
    2.8050    3.0955   -0.5916 Br  0  0  0  0  0  0  0  0  0  0  0  0
   -0.4724   -2.1752   -2.8394 O   0  0  0  0  0  0  0  0  0  0  0  0
   -1.4976   -1.3258   -4.6830 O   0  0  0  0  0  0  0  0  0  0  0  0
    0.9914   -2.5586    0.3446 N   0  0  0  0  0  0  0  0  0  0  0  0
   -2.9959    0.2947   -3.0230 N   0  0  0  0  0  0  0  0  0  0  0  0
   -0.5449   -1.2179   -0.5323 C   0  0  0  0  0  0  0  0  0  0  0  0
   -1.8190   -0.7222   -1.0920 C   0  0  0  0  0  0  0  0  0  0  0  0
    0.6466   -0.4639   -0.3410 C   0  0  0  0  0  0  0  0  0  0  0  0
   -1.6979   -0.1764   -2.5362 C   0  0  1  0  0  0  0  0  0  0  0  0
    1.5947   -1.3284    0.2104 C   0  0  0  0  0  0  0  0  0  0  0  0
   -0.3016   -2.5018   -0.1016 C   0  0  0  0  0  0  0  0  0  0  0  0
    1.0106    0.8754   -0.5845 C   0  0  0  0  0  0  0  0  0  0  0  0
    2.8938   -0.9191    0.5315 C   0  0  0  0  0  0  0  0  0  0  0  0
    2.3066    1.2990   -0.2683 C   0  0  0  0  0  0  0  0  0  0  0  0
   -1.2430   -1.2644   -3.4885 C   0  0  0  0  0  0  0  0  0  0  0  0
    3.2321    0.4139    0.2811 C   0  0  0  0  0  0  0  0  0  0  0  0
   -2.5647   -1.5284   -1.0640 H   0  0  0  0  0  0  0  0  0  0  0  0
   -2.2133    0.0712   -0.4423 H   0  0  0  0  0  0  0  0  0  0  0  0
   -0.9889    0.6592   -2.5762 H   0  0  0  0  0  0  0  0  0  0  0  0
   -0.9312   -3.3803   -0.0712 H   0  0  0  0  0  0  0  0  0  0  0  0
    1.4392   -3.3838    0.7188 H   0  0  0  0  0  0  0  0  0  0  0  0
    0.2931    1.5661   -1.0187 H   0  0  0  0  0  0  0  0  0  0  0  0
    3.6149   -1.6075    0.9592 H   0  0  0  0  0  0  0  0  0  0  0  0
   -2.8801    0.7322   -3.9367 H   0  0  0  0  0  0  0  0  0  0  0  0
   -3.3480    1.0230   -2.4027 H   0  0  0  0  0  0  0  0  0  0  0  0
    4.2384    0.7476    0.5253 H   0  0  0  0  0  0  0  0  0  0  0  0
   -0.1616   -2.8855   -3.4402 H   0  0  0  0  0  0  0  0  0  0  0  0
  1 14  1  0  0  0  0
  2 15  1  0  0  0  0
  2 27  1  0  0  0  0
  3 15  2  0  0  0  0
  4 10  1  0  0  0  0
  4 11  1  0  0  0  0
  4 21  1  0  0  0  0
  5  9  1  0  0  0  0
  5 24  1  0  0  0  0
  5 25  1  0  0  0  0
  6  7  1  0  0  0  0
  6  8  1  0  0  0  0
  6 11  2  0  0  0  0
  7  9  1  0  0  0  0
  7 17  1  0  0  0  0
  7 18  1  0  0  0  0
  8 10  2  0  0  0  0
  8 12  1  0  0  0  0
  9 15  1  0  0  0  0
  9 19  1  6  0  0  0
 10 13  1  0  0  0  0
 11 20  1  0  0  0  0
 12 14  2  0  0  0  0
 12 22  1  0  0  0  0
 13 16  2  0  0  0  0
 13 23  1  0  0  0  0
 14 16  1  0  0  0  0
 16 26  1  0  0  0  0
M  END
>  <PUBCHEM_COMPOUND_CID>
96735

>  <PUBCHEM_CONFORMER_RMSD>
0.6

>  <PUBCHEM_CONFORMER_DIVERSEORDER>
1
21
23
27
7
6
17
16
25
18
8
20
15
13
19
3
26
9
22
14
12
11
4
5
10
2
24

>  <PUBCHEM_MMFF94_PARTIAL_CHARGES>
23
1 -0.11
10 -0.15
11 -0.3
12 -0.15
13 -0.15
14 0.11
15 0.66
16 -0.15
2 -0.65
20 0.15
21 0.27
22 0.15
23 0.15
24 0.36
25 0.36
26 0.15
27 0.5
3 -0.57
4 0.03
5 -0.99
6 -0.18
7 0.18
9 0.33

>  <PUBCHEM_EFFECTIVE_ROTOR_COUNT>
3

>  <PUBCHEM_PHARMACOPHORE_FEATURES>
10
1 1 hydrophobe
1 2 acceptor
1 3 acceptor
1 4 cation
1 4 donor
1 5 cation
1 5 donor
3 2 3 15 anion
5 4 6 8 10 11 rings
6 8 10 12 13 14 16 rings

>  <PUBCHEM_HEAVY_ATOM_COUNT>
16

>  <PUBCHEM_ATOM_DEF_STEREO_COUNT>
0

>  <PUBCHEM_ATOM_UDEF_STEREO_COUNT>
1

>  <PUBCHEM_BOND_DEF_STEREO_COUNT>
0

>  <PUBCHEM_BOND_UDEF_STEREO_COUNT>
0

>  <PUBCHEM_ISOTOPIC_ATOM_COUNT>
0

>  <PUBCHEM_COMPONENT_COUNT>
1

>  <PUBCHEM_CACTVS_TAUTO_COUNT>
1

>  <PUBCHEM_CONFORMER_ID>
000179DF00000001

>  <PUBCHEM_MMFF94_ENERGY>
20.9886

>  <PUBCHEM_FEATURE_SELFOVERLAP>
50.892

>  <PUBCHEM_SHAPE_FINGERPRINT>
11471102 22 18113907017704346890
11640471 11 17845098359332862833
12403259 327 15647322104417206741
12491281 212 18263649618382218608
13140716 1 18189606327898569578
13618510 140 18409452526420472100
13764800 53 18048323532925062602
14787075 74 18124315167178597895
15490181 8 18412833503275010278
15775835 57 18201723929178119937
16945 1 18409454652334331470
192875 21 18339062822754813833
20510252 161 17617664697134019442
21524375 3 18272090525808676422
21665062 11 17834692495224876801
22094290 62 18410011057116016980
23419403 2 14064036600601634441
23557571 272 16485554645227557526
2748010 2 18192158298407538726
305870 269 18338518525844391474
4175511 71 18193564372126828886
474 4 18409165523688807169
526903 126 17838055166860279408
537710 114 18202278130768364809
63268167 104 18338793420873123914
6333272 397 18409730685624180515
7364860 26 18057606464616908766
74978 22 18337957904190356830
7832392 63 17908425753689332281

>  <PUBCHEM_SHAPE_MULTIPOLES>
313.51
5.41
2.92
1.01
0.7
0.2
-0.2
3.22
0.26
-1.3
0
0.39
0.19
-0.91

>  <PUBCHEM_SHAPE_SELFOVERLAP>
660.978

>  <PUBCHEM_SHAPE_VOLUME>
181.1

>  <PUBCHEM_COORDINATE_TYPE>
2
5
10

$$$$
96735
 OpenBabel12092211543D

 27 28  0  0  1  0  0  0  0  0999 V2000
    2.8050    3.0955   -0.5916 Br  0  0  0  0  0  0  0  0  0  0  0  0
   -1.5979   -2.5768   -2.9600 O   0  0  0  0  0  0  0  0  0  0  0  0
   -2.8673   -4.1317   -1.8912 O   0  0  0  0  0  0  0  0  0  0  0  0
    0.9914   -2.5586    0.3446 N   0  0  0  0  0  0  0  0  0  0  0  0
   -3.2355   -2.3238    0.1636 N   0  0  0  0  0  0  0  0  0  0  0  0
   -0.5449   -1.2179   -0.5323 C   0  0  0  0  0  0  0  0  0  0  0  0
   -1.8190   -0.7222   -1.0920 C   0  0  0  0  0  0  0  0  0  0  0  0
    0.6466   -0.4639   -0.3410 C   0  0  0  0  0  0  0  0  0  0  0  0
   -2.9298   -1.7985   -1.1685 C   0  0  1  0  0  0  0  0  0  0  0  0
    1.5947   -1.3284    0.2104 C   0  0  0  0  0  0  0  0  0  0  0  0
   -0.3016   -2.5018   -0.1016 C   0  0  0  0  0  0  0  0  0  0  0  0
    1.0106    0.8754   -0.5845 C   0  0  0  0  0  0  0  0  0  0  0  0
    2.8938   -0.9191    0.5315 C   0  0  0  0  0  0  0  0  0  0  0  0
    2.3066    1.2990   -0.2683 C   0  0  0  0  0  0  0  0  0  0  0  0
   -2.4830   -2.9770   -2.0106 C   0  0  0  0  0  0  0  0  0  0  0  0
    3.2321    0.4139    0.2811 C   0  0  0  0  0  0  0  0  0  0  0  0
   -2.1709    0.1287   -0.4928 H   0  0  0  0  0  0  0  0  0  0  0  0
   -1.6387   -0.3230   -2.0995 H   0  0  0  0  0  0  0  0  0  0  0  0
   -3.8486   -1.3774   -1.5939 H   0  0  0  0  0  0  0  0  0  0  0  0
   -0.9312   -3.3803   -0.0712 H   0  0  0  0  0  0  0  0  0  0  0  0
    1.4392   -3.3838    0.7188 H   0  0  0  0  0  0  0  0  0  0  0  0
    0.2931    1.5661   -1.0187 H   0  0  0  0  0  0  0  0  0  0  0  0
    3.6149   -1.6075    0.9592 H   0  0  0  0  0  0  0  0  0  0  0  0
   -4.0284   -2.9622    0.1058 H   0  0  0  0  0  0  0  0  0  0  0  0
   -3.5303   -1.5601    0.7710 H   0  0  0  0  0  0  0  0  0  0  0  0
    4.2384    0.7476    0.5253 H   0  0  0  0  0  0  0  0  0  0  0  0
   -1.3008   -3.3245   -3.5211 H   0  0  0  0  0  0  0  0  0  0  0  0
  1 14  1  0  0  0  0
  2 15  1  0  0  0  0
  2 27  1  0  0  0  0
  3 15  2  0  0  0  0
  4 10  1  0  0  0  0
  4 11  1  0  0  0  0
  4 21  1  0  0  0  0
  5  9  1  0  0  0  0
  5 24  1  0  0  0  0
  5 25  1  0  0  0  0
  6  7  1  0  0  0  0
  6  8  1  0  0  0  0
  6 11  2  0  0  0  0
  7  9  1  0  0  0  0
  7 17  1  0  0  0  0
  7 18  1  0  0  0  0
  8 10  2  0  0  0  0
  8 12  1  0  0  0  0
  9 15  1  0  0  0  0
  9 19  1  6  0  0  0
 10 13  1  0  0  0  0
 11 20  1  0  0  0  0
 12 14  2  0  0  0  0
 12 22  1  0  0  0  0
 13 16  2  0  0  0  0
 13 23  1  0  0  0  0
 14 16  1  0  0  0  0
 16 26  1  0  0  0  0
M  END
>  <PUBCHEM_COMPOUND_CID>
96735

>  <PUBCHEM_CONFORMER_RMSD>
0.6

>  <PUBCHEM_CONFORMER_DIVERSEORDER>
1
21
23
27
7
6
17
16
25
18
8
20
15
13
19
3
26
9
22
14
12
11
4
5
10
2
24

>  <PUBCHEM_MMFF94_PARTIAL_CHARGES>
23
1 -0.11
10 -0.15
11 -0.3
12 -0.15
13 -0.15
14 0.11
15 0.66
16 -0.15
2 -0.65
20 0.15
21 0.27
22 0.15
23 0.15
24 0.36
25 0.36
26 0.15
27 0.5
3 -0.57
4 0.03
5 -0.99
6 -0.18
7 0.18
9 0.33

>  <PUBCHEM_EFFECTIVE_ROTOR_COUNT>
3

>  <PUBCHEM_PHARMACOPHORE_FEATURES>
10
1 1 hydrophobe
1 2 acceptor
1 3 acceptor
1 4 cation
1 4 donor
1 5 cation
1 5 donor
3 2 3 15 anion
5 4 6 8 10 11 rings
6 8 10 12 13 14 16 rings

>  <PUBCHEM_HEAVY_ATOM_COUNT>
16

>  <PUBCHEM_ATOM_DEF_STEREO_COUNT>
0

>  <PUBCHEM_ATOM_UDEF_STEREO_COUNT>
1

>  <PUBCHEM_BOND_DEF_STEREO_COUNT>
0

>  <PUBCHEM_BOND_UDEF_STEREO_COUNT>
0

>  <PUBCHEM_ISOTOPIC_ATOM_COUNT>
0

>  <PUBCHEM_COMPONENT_COUNT>
1

>  <PUBCHEM_CACTVS_TAUTO_COUNT>
1

>  <PUBCHEM_CONFORMER_ID>
000179DF00000001

>  <PUBCHEM_MMFF94_ENERGY>
20.9886

>  <PUBCHEM_FEATURE_SELFOVERLAP>
50.892

>  <PUBCHEM_SHAPE_FINGERPRINT>
11471102 22 18113907017704346890
11640471 11 17845098359332862833
12403259 327 15647322104417206741
12491281 212 18263649618382218608
13140716 1 18189606327898569578
13618510 140 18409452526420472100
13764800 53 18048323532925062602
14787075 74 18124315167178597895
15490181 8 18412833503275010278
15775835 57 18201723929178119937
16945 1 18409454652334331470
192875 21 18339062822754813833
20510252 161 17617664697134019442
21524375 3 18272090525808676422
21665062 11 17834692495224876801
22094290 62 18410011057116016980
23419403 2 14064036600601634441
23557571 272 16485554645227557526
2748010 2 18192158298407538726
305870 269 18338518525844391474
4175511 71 18193564372126828886
474 4 18409165523688807169
526903 126 17838055166860279408
537710 114 18202278130768364809
63268167 104 18338793420873123914
6333272 397 18409730685624180515
7364860 26 18057606464616908766
74978 22 18337957904190356830
7832392 63 17908425753689332281

>  <PUBCHEM_SHAPE_MULTIPOLES>
313.51
5.41
2.92
1.01
0.7
0.2
-0.2
3.22
0.26
-1.3
0
0.39
0.19
-0.91

>  <PUBCHEM_SHAPE_SELFOVERLAP>
660.978

>  <PUBCHEM_SHAPE_VOLUME>
181.1

>  <PUBCHEM_COORDINATE_TYPE>
2
5
10

$$$$
96735
 OpenBabel12092211543D

 27 28  0  0  1  0  0  0  0  0999 V2000
    2.8050    3.0955   -0.5916 Br  0  0  0  0  0  0  0  0  0  0  0  0
   -2.0230   -1.6856   -4.1206 O   0  0  0  0  0  0  0  0  0  0  0  0
   -1.1215   -3.3906   -2.9158 O   0  0  0  0  0  0  0  0  0  0  0  0
    0.9914   -2.5586    0.3446 N   0  0  0  0  0  0  0  0  0  0  0  0
   -2.9770   -2.9097   -0.9436 N   0  0  0  0  0  0  0  0  0  0  0  0
   -0.5449   -1.2179   -0.5323 C   0  0  0  0  0  0  0  0  0  0  0  0
   -1.8190   -0.7222   -1.0920 C   0  0  0  0  0  0  0  0  0  0  0  0
    0.6466   -0.4639   -0.3410 C   0  0  0  0  0  0  0  0  0  0  0  0
   -2.6366   -1.8036   -1.8405 C   0  0  1  0  0  0  0  0  0  0  0  0
    1.5947   -1.3284    0.2104 C   0  0  0  0  0  0  0  0  0  0  0  0
   -0.3016   -2.5018   -0.1016 C   0  0  0  0  0  0  0  0  0  0  0  0
    1.0106    0.8754   -0.5845 C   0  0  0  0  0  0  0  0  0  0  0  0
    2.8938   -0.9191    0.5315 C   0  0  0  0  0  0  0  0  0  0  0  0
    2.3066    1.2990   -0.2683 C   0  0  0  0  0  0  0  0  0  0  0  0
   -1.8317   -2.3972   -2.9796 C   0  0  0  0  0  0  0  0  0  0  0  0
    3.2321    0.4139    0.2811 C   0  0  0  0  0  0  0  0  0  0  0  0
   -2.4273   -0.2941   -0.2836 H   0  0  0  0  0  0  0  0  0  0  0  0
   -1.6110    0.1084   -1.7804 H   0  0  0  0  0  0  0  0  0  0  0  0
   -3.5672   -1.3803   -2.2371 H   0  0  0  0  0  0  0  0  0  0  0  0
   -0.9312   -3.3803   -0.0712 H   0  0  0  0  0  0  0  0  0  0  0  0
    1.4392   -3.3838    0.7188 H   0  0  0  0  0  0  0  0  0  0  0  0
    0.2931    1.5661   -1.0187 H   0  0  0  0  0  0  0  0  0  0  0  0
    3.6149   -1.6075    0.9592 H   0  0  0  0  0  0  0  0  0  0  0  0
   -3.5899   -3.5657   -1.4269 H   0  0  0  0  0  0  0  0  0  0  0  0
   -3.5114   -2.5534   -0.1518 H   0  0  0  0  0  0  0  0  0  0  0  0
    4.2384    0.7476    0.5253 H   0  0  0  0  0  0  0  0  0  0  0  0
   -1.5154   -2.0577   -4.8729 H   0  0  0  0  0  0  0  0  0  0  0  0
  1 14  1  0  0  0  0
  2 15  1  0  0  0  0
  2 27  1  0  0  0  0
  3 15  2  0  0  0  0
  4 10  1  0  0  0  0
  4 11  1  0  0  0  0
  4 21  1  0  0  0  0
  5  9  1  0  0  0  0
  5 24  1  0  0  0  0
  5 25  1  0  0  0  0
  6  7  1  0  0  0  0
  6  8  1  0  0  0  0
  6 11  2  0  0  0  0
  7  9  1  0  0  0  0
  7 17  1  0  0  0  0
  7 18  1  0  0  0  0
  8 10  2  0  0  0  0
  8 12  1  0  0  0  0
  9 15  1  0  0  0  0
  9 19  1  6  0  0  0
 10 13  1  0  0  0  0
 11 20  1  0  0  0  0
 12 14  2  0  0  0  0
 12 22  1  0  0  0  0
 13 16  2  0  0  0  0
 13 23  1  0  0  0  0
 14 16  1  0  0  0  0
 16 26  1  0  0  0  0
M  END
>  <PUBCHEM_COMPOUND_CID>
96735

>  <PUBCHEM_CONFORMER_RMSD>
0.6

>  <PUBCHEM_CONFORMER_DIVERSEORDER>
1
21
23
27
7
6
17
16
25
18
8
20
15
13
19
3
26
9
22
14
12
11
4
5
10
2
24

>  <PUBCHEM_MMFF94_PARTIAL_CHARGES>
23
1 -0.11
10 -0.15
11 -0.3
12 -0.15
13 -0.15
14 0.11
15 0.66
16 -0.15
2 -0.65
20 0.15
21 0.27
22 0.15
23 0.15
24 0.36
25 0.36
26 0.15
27 0.5
3 -0.57
4 0.03
5 -0.99
6 -0.18
7 0.18
9 0.33

>  <PUBCHEM_EFFECTIVE_ROTOR_COUNT>
3

>  <PUBCHEM_PHARMACOPHORE_FEATURES>
10
1 1 hydrophobe
1 2 acceptor
1 3 acceptor
1 4 cation
1 4 donor
1 5 cation
1 5 donor
3 2 3 15 anion
5 4 6 8 10 11 rings
6 8 10 12 13 14 16 rings

>  <PUBCHEM_HEAVY_ATOM_COUNT>
16

>  <PUBCHEM_ATOM_DEF_STEREO_COUNT>
0

>  <PUBCHEM_ATOM_UDEF_STEREO_COUNT>
1

>  <PUBCHEM_BOND_DEF_STEREO_COUNT>
0

>  <PUBCHEM_BOND_UDEF_STEREO_COUNT>
0

>  <PUBCHEM_ISOTOPIC_ATOM_COUNT>
0

>  <PUBCHEM_COMPONENT_COUNT>
1

>  <PUBCHEM_CACTVS_TAUTO_COUNT>
1

>  <PUBCHEM_CONFORMER_ID>
000179DF00000001

>  <PUBCHEM_MMFF94_ENERGY>
20.9886

>  <PUBCHEM_FEATURE_SELFOVERLAP>
50.892

>  <PUBCHEM_SHAPE_FINGERPRINT>
11471102 22 18113907017704346890
11640471 11 17845098359332862833
12403259 327 15647322104417206741
12491281 212 18263649618382218608
13140716 1 18189606327898569578
13618510 140 18409452526420472100
13764800 53 18048323532925062602
14787075 74 18124315167178597895
15490181 8 18412833503275010278
15775835 57 18201723929178119937
16945 1 18409454652334331470
192875 21 18339062822754813833
20510252 161 17617664697134019442
21524375 3 18272090525808676422
21665062 11 17834692495224876801
22094290 62 18410011057116016980
23419403 2 14064036600601634441
23557571 272 16485554645227557526
2748010 2 18192158298407538726
305870 269 18338518525844391474
4175511 71 18193564372126828886
474 4 18409165523688807169
526903 126 17838055166860279408
537710 114 18202278130768364809
63268167 104 18338793420873123914
6333272 397 18409730685624180515
7364860 26 18057606464616908766
74978 22 18337957904190356830
7832392 63 17908425753689332281

>  <PUBCHEM_SHAPE_MULTIPOLES>
313.51
5.41
2.92
1.01
0.7
0.2
-0.2
3.22
0.26
-1.3
0
0.39
0.19
-0.91

>  <PUBCHEM_SHAPE_SELFOVERLAP>
660.978

>  <PUBCHEM_SHAPE_VOLUME>
181.1

>  <PUBCHEM_COORDINATE_TYPE>
2
5
10

$$$$
96735
 OpenBabel12092211543D

 27 28  0  0  1  0  0  0  0  0999 V2000
    2.8050    3.0955   -0.5916 Br  0  0  0  0  0  0  0  0  0  0  0  0
   -3.9438    2.2258   -0.6552 O   0  0  0  0  0  0  0  0  0  0  0  0
   -3.9865    0.7049   -2.3453 O   0  0  0  0  0  0  0  0  0  0  0  0
    0.9914   -2.5586    0.3446 N   0  0  0  0  0  0  0  0  0  0  0  0
   -2.1284    1.0428    0.6217 N   0  0  0  0  0  0  0  0  0  0  0  0
   -0.5449   -1.2179   -0.5323 C   0  0  0  0  0  0  0  0  0  0  0  0
   -1.8190   -0.7222   -1.0920 C   0  0  0  0  0  0  0  0  0  0  0  0
    0.6466   -0.4639   -0.3410 C   0  0  0  0  0  0  0  0  0  0  0  0
   -2.0810    0.7793   -0.8177 C   0  0  1  0  0  0  0  0  0  0  0  0
    1.5947   -1.3284    0.2104 C   0  0  0  0  0  0  0  0  0  0  0  0
   -0.3016   -2.5018   -0.1016 C   0  0  0  0  0  0  0  0  0  0  0  0
    1.0106    0.8754   -0.5845 C   0  0  0  0  0  0  0  0  0  0  0  0
    2.8938   -0.9191    0.5315 C   0  0  0  0  0  0  0  0  0  0  0  0
    2.3066    1.2990   -0.2683 C   0  0  0  0  0  0  0  0  0  0  0  0
   -3.4205    1.2061   -1.3841 C   0  0  0  0  0  0  0  0  0  0  0  0
    3.2321    0.4139    0.2811 C   0  0  0  0  0  0  0  0  0  0  0  0
   -1.8351   -0.9074   -2.1747 H   0  0  0  0  0  0  0  0  0  0  0  0
   -2.6482   -1.3111   -0.6765 H   0  0  0  0  0  0  0  0  0  0  0  0
   -1.2888    1.3972   -1.2570 H   0  0  0  0  0  0  0  0  0  0  0  0
   -0.9312   -3.3803   -0.0712 H   0  0  0  0  0  0  0  0  0  0  0  0
    1.4392   -3.3838    0.7188 H   0  0  0  0  0  0  0  0  0  0  0  0
    0.2931    1.5661   -1.0187 H   0  0  0  0  0  0  0  0  0  0  0  0
    3.6149   -1.6075    0.9592 H   0  0  0  0  0  0  0  0  0  0  0  0
   -2.2104    2.0462    0.7831 H   0  0  0  0  0  0  0  0  0  0  0  0
   -1.2477    0.7582    1.0489 H   0  0  0  0  0  0  0  0  0  0  0  0
    4.2384    0.7476    0.5253 H   0  0  0  0  0  0  0  0  0  0  0  0
   -4.8153    2.5131   -1.0017 H   0  0  0  0  0  0  0  0  0  0  0  0
  1 14  1  0  0  0  0
  2 15  1  0  0  0  0
  2 27  1  0  0  0  0
  3 15  2  0  0  0  0
  4 10  1  0  0  0  0
  4 11  1  0  0  0  0
  4 21  1  0  0  0  0
  5  9  1  0  0  0  0
  5 24  1  0  0  0  0
  5 25  1  0  0  0  0
  6  7  1  0  0  0  0
  6  8  1  0  0  0  0
  6 11  2  0  0  0  0
  7  9  1  0  0  0  0
  7 17  1  0  0  0  0
  7 18  1  0  0  0  0
  8 10  2  0  0  0  0
  8 12  1  0  0  0  0
  9 15  1  0  0  0  0
  9 19  1  6  0  0  0
 10 13  1  0  0  0  0
 11 20  1  0  0  0  0
 12 14  2  0  0  0  0
 12 22  1  0  0  0  0
 13 16  2  0  0  0  0
 13 23  1  0  0  0  0
 14 16  1  0  0  0  0
 16 26  1  0  0  0  0
M  END
>  <PUBCHEM_COMPOUND_CID>
96735

>  <PUBCHEM_CONFORMER_RMSD>
0.6

>  <PUBCHEM_CONFORMER_DIVERSEORDER>
1
21
23
27
7
6
17
16
25
18
8
20
15
13
19
3
26
9
22
14
12
11
4
5
10
2
24

>  <PUBCHEM_MMFF94_PARTIAL_CHARGES>
23
1 -0.11
10 -0.15
11 -0.3
12 -0.15
13 -0.15
14 0.11
15 0.66
16 -0.15
2 -0.65
20 0.15
21 0.27
22 0.15
23 0.15
24 0.36
25 0.36
26 0.15
27 0.5
3 -0.57
4 0.03
5 -0.99
6 -0.18
7 0.18
9 0.33

>  <PUBCHEM_EFFECTIVE_ROTOR_COUNT>
3

>  <PUBCHEM_PHARMACOPHORE_FEATURES>
10
1 1 hydrophobe
1 2 acceptor
1 3 acceptor
1 4 cation
1 4 donor
1 5 cation
1 5 donor
3 2 3 15 anion
5 4 6 8 10 11 rings
6 8 10 12 13 14 16 rings

>  <PUBCHEM_HEAVY_ATOM_COUNT>
16

>  <PUBCHEM_ATOM_DEF_STEREO_COUNT>
0

>  <PUBCHEM_ATOM_UDEF_STEREO_COUNT>
1

>  <PUBCHEM_BOND_DEF_STEREO_COUNT>
0

>  <PUBCHEM_BOND_UDEF_STEREO_COUNT>
0

>  <PUBCHEM_ISOTOPIC_ATOM_COUNT>
0

>  <PUBCHEM_COMPONENT_COUNT>
1

>  <PUBCHEM_CACTVS_TAUTO_COUNT>
1

>  <PUBCHEM_CONFORMER_ID>
000179DF00000001

>  <PUBCHEM_MMFF94_ENERGY>
20.9886

>  <PUBCHEM_FEATURE_SELFOVERLAP>
50.892

>  <PUBCHEM_SHAPE_FINGERPRINT>
11471102 22 18113907017704346890
11640471 11 17845098359332862833
12403259 327 15647322104417206741
12491281 212 18263649618382218608
13140716 1 18189606327898569578
13618510 140 18409452526420472100
13764800 53 18048323532925062602
14787075 74 18124315167178597895
15490181 8 18412833503275010278
15775835 57 18201723929178119937
16945 1 18409454652334331470
192875 21 18339062822754813833
20510252 161 17617664697134019442
21524375 3 18272090525808676422
21665062 11 17834692495224876801
22094290 62 18410011057116016980
23419403 2 14064036600601634441
23557571 272 16485554645227557526
2748010 2 18192158298407538726
305870 269 18338518525844391474
4175511 71 18193564372126828886
474 4 18409165523688807169
526903 126 17838055166860279408
537710 114 18202278130768364809
63268167 104 18338793420873123914
6333272 397 18409730685624180515
7364860 26 18057606464616908766
74978 22 18337957904190356830
7832392 63 17908425753689332281

>  <PUBCHEM_SHAPE_MULTIPOLES>
313.51
5.41
2.92
1.01
0.7
0.2
-0.2
3.22
0.26
-1.3
0
0.39
0.19
-0.91

>  <PUBCHEM_SHAPE_SELFOVERLAP>
660.978

>  <PUBCHEM_SHAPE_VOLUME>
181.1

>  <PUBCHEM_COORDINATE_TYPE>
2
5
10

$$$$
96735
 OpenBabel12092211543D

 27 28  0  0  1  0  0  0  0  0999 V2000
    2.8050    3.0955   -0.5916 Br  0  0  0  0  0  0  0  0  0  0  0  0
   -3.8850   -0.2569   -2.6850 O   0  0  0  0  0  0  0  0  0  0  0  0
   -5.3363   -1.5640   -1.5202 O   0  0  0  0  0  0  0  0  0  0  0  0
    0.9914   -2.5586    0.3446 N   0  0  0  0  0  0  0  0  0  0  0  0
   -2.5106   -2.9170   -2.0153 N   0  0  0  0  0  0  0  0  0  0  0  0
   -0.5449   -1.2179   -0.5323 C   0  0  0  0  0  0  0  0  0  0  0  0
   -1.8190   -0.7222   -1.0920 C   0  0  0  0  0  0  0  0  0  0  0  0
    0.6466   -0.4639   -0.3410 C   0  0  0  0  0  0  0  0  0  0  0  0
   -2.9298   -1.7985   -1.1685 C   0  0  1  0  0  0  0  0  0  0  0  0
    1.5947   -1.3284    0.2104 C   0  0  0  0  0  0  0  0  0  0  0  0
   -0.3016   -2.5018   -0.1016 C   0  0  0  0  0  0  0  0  0  0  0  0
    1.0106    0.8754   -0.5845 C   0  0  0  0  0  0  0  0  0  0  0  0
    2.8938   -0.9191    0.5315 C   0  0  0  0  0  0  0  0  0  0  0  0
    2.3066    1.2990   -0.2683 C   0  0  0  0  0  0  0  0  0  0  0  0
   -4.1908   -1.2302   -1.7884 C   0  0  0  0  0  0  0  0  0  0  0  0
    3.2321    0.4139    0.2811 C   0  0  0  0  0  0  0  0  0  0  0  0
   -2.1709    0.1287   -0.4928 H   0  0  0  0  0  0  0  0  0  0  0  0
   -1.6387   -0.3230   -2.0995 H   0  0  0  0  0  0  0  0  0  0  0  0
   -3.1613   -2.1879   -0.1699 H   0  0  0  0  0  0  0  0  0  0  0  0
   -0.9312   -3.3803   -0.0712 H   0  0  0  0  0  0  0  0  0  0  0  0
    1.4392   -3.3838    0.7188 H   0  0  0  0  0  0  0  0  0  0  0  0
    0.2931    1.5661   -1.0187 H   0  0  0  0  0  0  0  0  0  0  0  0
    3.6149   -1.6075    0.9592 H   0  0  0  0  0  0  0  0  0  0  0  0
   -3.2140   -3.6543   -1.9809 H   0  0  0  0  0  0  0  0  0  0  0  0
   -1.6544   -3.3246   -1.6412 H   0  0  0  0  0  0  0  0  0  0  0  0
    4.2384    0.7476    0.5253 H   0  0  0  0  0  0  0  0  0  0  0  0
   -4.6888    0.1293   -3.0936 H   0  0  0  0  0  0  0  0  0  0  0  0
  1 14  1  0  0  0  0
  2 15  1  0  0  0  0
  2 27  1  0  0  0  0
  3 15  2  0  0  0  0
  4 10  1  0  0  0  0
  4 11  1  0  0  0  0
  4 21  1  0  0  0  0
  5  9  1  0  0  0  0
  5 24  1  0  0  0  0
  5 25  1  0  0  0  0
  6  7  1  0  0  0  0
  6  8  1  0  0  0  0
  6 11  2  0  0  0  0
  7  9  1  0  0  0  0
  7 17  1  0  0  0  0
  7 18  1  0  0  0  0
  8 10  2  0  0  0  0
  8 12  1  0  0  0  0
  9 15  1  0  0  0  0
  9 19  1  1  0  0  0
 10 13  1  0  0  0  0
 11 20  1  0  0  0  0
 12 14  2  0  0  0  0
 12 22  1  0  0  0  0
 13 16  2  0  0  0  0
 13 23  1  0  0  0  0
 14 16  1  0  0  0  0
 16 26  1  0  0  0  0
M  END
>  <PUBCHEM_COMPOUND_CID>
96735

>  <PUBCHEM_CONFORMER_RMSD>
0.6

>  <PUBCHEM_CONFORMER_DIVERSEORDER>
1
21
23
27
7
6
17
16
25
18
8
20
15
13
19
3
26
9
22
14
12
11
4
5
10
2
24

>  <PUBCHEM_MMFF94_PARTIAL_CHARGES>
23
1 -0.11
10 -0.15
11 -0.3
12 -0.15
13 -0.15
14 0.11
15 0.66
16 -0.15
2 -0.65
20 0.15
21 0.27
22 0.15
23 0.15
24 0.36
25 0.36
26 0.15
27 0.5
3 -0.57
4 0.03
5 -0.99
6 -0.18
7 0.18
9 0.33

>  <PUBCHEM_EFFECTIVE_ROTOR_COUNT>
3

>  <PUBCHEM_PHARMACOPHORE_FEATURES>
10
1 1 hydrophobe
1 2 acceptor
1 3 acceptor
1 4 cation
1 4 donor
1 5 cation
1 5 donor
3 2 3 15 anion
5 4 6 8 10 11 rings
6 8 10 12 13 14 16 rings

>  <PUBCHEM_HEAVY_ATOM_COUNT>
16

>  <PUBCHEM_ATOM_DEF_STEREO_COUNT>
0

>  <PUBCHEM_ATOM_UDEF_STEREO_COUNT>
1

>  <PUBCHEM_BOND_DEF_STEREO_COUNT>
0

>  <PUBCHEM_BOND_UDEF_STEREO_COUNT>
0

>  <PUBCHEM_ISOTOPIC_ATOM_COUNT>
0

>  <PUBCHEM_COMPONENT_COUNT>
1

>  <PUBCHEM_CACTVS_TAUTO_COUNT>
1

>  <PUBCHEM_CONFORMER_ID>
000179DF00000001

>  <PUBCHEM_MMFF94_ENERGY>
20.9886

>  <PUBCHEM_FEATURE_SELFOVERLAP>
50.892

>  <PUBCHEM_SHAPE_FINGERPRINT>
11471102 22 18113907017704346890
11640471 11 17845098359332862833
12403259 327 15647322104417206741
12491281 212 18263649618382218608
13140716 1 18189606327898569578
13618510 140 18409452526420472100
13764800 53 18048323532925062602
14787075 74 18124315167178597895
15490181 8 18412833503275010278
15775835 57 18201723929178119937
16945 1 18409454652334331470
192875 21 18339062822754813833
20510252 161 17617664697134019442
21524375 3 18272090525808676422
21665062 11 17834692495224876801
22094290 62 18410011057116016980
23419403 2 14064036600601634441
23557571 272 16485554645227557526
2748010 2 18192158298407538726
305870 269 18338518525844391474
4175511 71 18193564372126828886
474 4 18409165523688807169
526903 126 17838055166860279408
537710 114 18202278130768364809
63268167 104 18338793420873123914
6333272 397 18409730685624180515
7364860 26 18057606464616908766
74978 22 18337957904190356830
7832392 63 17908425753689332281

>  <PUBCHEM_SHAPE_MULTIPOLES>
313.51
5.41
2.92
1.01
0.7
0.2
-0.2
3.22
0.26
-1.3
0
0.39
0.19
-0.91

>  <PUBCHEM_SHAPE_SELFOVERLAP>
660.978

>  <PUBCHEM_SHAPE_VOLUME>
181.1

>  <PUBCHEM_COORDINATE_TYPE>
2
5
10

$$$$
96735
 OpenBabel12092211543D

 27 28  0  0  1  0  0  0  0  0999 V2000
    2.8050    3.0955   -0.5916 Br  0  0  0  0  0  0  0  0  0  0  0  0
   -3.1514    1.8899    1.0984 O   0  0  0  0  0  0  0  0  0  0  0  0
   -0.9878    1.2338    0.8544 O   0  0  0  0  0  0  0  0  0  0  0  0
    0.9914   -2.5586    0.3446 N   0  0  0  0  0  0  0  0  0  0  0  0
   -4.0287    0.3142   -0.6547 N   0  0  0  0  0  0  0  0  0  0  0  0
   -0.5449   -1.2179   -0.5323 C   0  0  0  0  0  0  0  0  0  0  0  0
   -1.8190   -0.7222   -1.0920 C   0  0  0  0  0  0  0  0  0  0  0  0
    0.6466   -0.4639   -0.3410 C   0  0  0  0  0  0  0  0  0  0  0  0
   -2.7922   -0.1573   -0.0281 C   0  0  1  0  0  0  0  0  0  0  0  0
    1.5947   -1.3284    0.2104 C   0  0  0  0  0  0  0  0  0  0  0  0
   -0.3016   -2.5018   -0.1016 C   0  0  0  0  0  0  0  0  0  0  0  0
    1.0106    0.8754   -0.5845 C   0  0  0  0  0  0  0  0  0  0  0  0
    2.8938   -0.9191    0.5315 C   0  0  0  0  0  0  0  0  0  0  0  0
    2.3066    1.2990   -0.2683 C   0  0  0  0  0  0  0  0  0  0  0  0
   -2.1820    1.0334    0.6841 C   0  0  0  0  0  0  0  0  0  0  0  0
    3.2321    0.4139    0.2811 C   0  0  0  0  0  0  0  0  0  0  0  0
   -1.6078    0.0494   -1.8449 H   0  0  0  0  0  0  0  0  0  0  0  0
   -2.3164   -1.5386   -1.6333 H   0  0  0  0  0  0  0  0  0  0  0  0
   -3.0494   -0.9272    0.7093 H   0  0  0  0  0  0  0  0  0  0  0  0
   -0.9312   -3.3803   -0.0712 H   0  0  0  0  0  0  0  0  0  0  0  0
    1.4392   -3.3838    0.7188 H   0  0  0  0  0  0  0  0  0  0  0  0
    0.2931    1.5661   -1.0187 H   0  0  0  0  0  0  0  0  0  0  0  0
    3.6149   -1.6075    0.9592 H   0  0  0  0  0  0  0  0  0  0  0  0
   -4.6912    0.5974    0.0667 H   0  0  0  0  0  0  0  0  0  0  0  0
   -4.4696   -0.4547   -1.1582 H   0  0  0  0  0  0  0  0  0  0  0  0
    4.2384    0.7476    0.5253 H   0  0  0  0  0  0  0  0  0  0  0  0
   -2.7767    2.6720    1.5567 H   0  0  0  0  0  0  0  0  0  0  0  0
  1 14  1  0  0  0  0
  2 15  1  0  0  0  0
  2 27  1  0  0  0  0
  3 15  2  0  0  0  0
  4 10  1  0  0  0  0
  4 11  1  0  0  0  0
  4 21  1  0  0  0  0
  5  9  1  0  0  0  0
  5 24  1  0  0  0  0
  5 25  1  0  0  0  0
  6  7  1  0  0  0  0
  6  8  1  0  0  0  0
  6 11  2  0  0  0  0
  7  9  1  0  0  0  0
  7 17  1  0  0  0  0
  7 18  1  0  0  0  0
  8 10  2  0  0  0  0
  8 12  1  0  0  0  0
  9 15  1  0  0  0  0
  9 19  1  1  0  0  0
 10 13  1  0  0  0  0
 11 20  1  0  0  0  0
 12 14  2  0  0  0  0
 12 22  1  0  0  0  0
 13 16  2  0  0  0  0
 13 23  1  0  0  0  0
 14 16  1  0  0  0  0
 16 26  1  0  0  0  0
M  END
>  <PUBCHEM_COMPOUND_CID>
96735

>  <PUBCHEM_CONFORMER_RMSD>
0.6

>  <PUBCHEM_CONFORMER_DIVERSEORDER>
1
21
23
27
7
6
17
16
25
18
8
20
15
13
19
3
26
9
22
14
12
11
4
5
10
2
24

>  <PUBCHEM_MMFF94_PARTIAL_CHARGES>
23
1 -0.11
10 -0.15
11 -0.3
12 -0.15
13 -0.15
14 0.11
15 0.66
16 -0.15
2 -0.65
20 0.15
21 0.27
22 0.15
23 0.15
24 0.36
25 0.36
26 0.15
27 0.5
3 -0.57
4 0.03
5 -0.99
6 -0.18
7 0.18
9 0.33

>  <PUBCHEM_EFFECTIVE_ROTOR_COUNT>
3

>  <PUBCHEM_PHARMACOPHORE_FEATURES>
10
1 1 hydrophobe
1 2 acceptor
1 3 acceptor
1 4 cation
1 4 donor
1 5 cation
1 5 donor
3 2 3 15 anion
5 4 6 8 10 11 rings
6 8 10 12 13 14 16 rings

>  <PUBCHEM_HEAVY_ATOM_COUNT>
16

>  <PUBCHEM_ATOM_DEF_STEREO_COUNT>
0

>  <PUBCHEM_ATOM_UDEF_STEREO_COUNT>
1

>  <PUBCHEM_BOND_DEF_STEREO_COUNT>
0

>  <PUBCHEM_BOND_UDEF_STEREO_COUNT>
0

>  <PUBCHEM_ISOTOPIC_ATOM_COUNT>
0

>  <PUBCHEM_COMPONENT_COUNT>
1

>  <PUBCHEM_CACTVS_TAUTO_COUNT>
1

>  <PUBCHEM_CONFORMER_ID>
000179DF00000001

>  <PUBCHEM_MMFF94_ENERGY>
20.9886

>  <PUBCHEM_FEATURE_SELFOVERLAP>
50.892

>  <PUBCHEM_SHAPE_FINGERPRINT>
11471102 22 18113907017704346890
11640471 11 17845098359332862833
12403259 327 15647322104417206741
12491281 212 18263649618382218608
13140716 1 18189606327898569578
13618510 140 18409452526420472100
13764800 53 18048323532925062602
14787075 74 18124315167178597895
15490181 8 18412833503275010278
15775835 57 18201723929178119937
16945 1 18409454652334331470
192875 21 18339062822754813833
20510252 161 17617664697134019442
21524375 3 18272090525808676422
21665062 11 17834692495224876801
22094290 62 18410011057116016980
23419403 2 14064036600601634441
23557571 272 16485554645227557526
2748010 2 18192158298407538726
305870 269 18338518525844391474
4175511 71 18193564372126828886
474 4 18409165523688807169
526903 126 17838055166860279408
537710 114 18202278130768364809
63268167 104 18338793420873123914
6333272 397 18409730685624180515
7364860 26 18057606464616908766
74978 22 18337957904190356830
7832392 63 17908425753689332281

>  <PUBCHEM_SHAPE_MULTIPOLES>
313.51
5.41
2.92
1.01
0.7
0.2
-0.2
3.22
0.26
-1.3
0
0.39
0.19
-0.91

>  <PUBCHEM_SHAPE_SELFOVERLAP>
660.978

>  <PUBCHEM_SHAPE_VOLUME>
181.1

>  <PUBCHEM_COORDINATE_TYPE>
2
5
10

$$$$
96735
 OpenBabel12092211543D

 27 28  0  0  1  0  0  0  0  0999 V2000
    2.8050    3.0955   -0.5916 Br  0  0  0  0  0  0  0  0  0  0  0  0
   -0.0481   -1.9146   -3.0486 O   0  0  0  0  0  0  0  0  0  0  0  0
   -1.3590   -0.8196   -4.5501 O   0  0  0  0  0  0  0  0  0  0  0  0
    0.9914   -2.5586    0.3446 N   0  0  0  0  0  0  0  0  0  0  0  0
   -2.4565   -2.8906   -2.1116 N   0  0  0  0  0  0  0  0  0  0  0  0
   -0.5449   -1.2179   -0.5323 C   0  0  0  0  0  0  0  0  0  0  0  0
   -1.8190   -0.7222   -1.0920 C   0  0  0  0  0  0  0  0  0  0  0  0
    0.6466   -0.4639   -0.3410 C   0  0  0  0  0  0  0  0  0  0  0  0
   -2.2689   -1.4627   -2.3755 C   0  0  1  0  0  0  0  0  0  0  0  0
    1.5947   -1.3284    0.2104 C   0  0  0  0  0  0  0  0  0  0  0  0
   -0.3016   -2.5018   -0.1016 C   0  0  0  0  0  0  0  0  0  0  0  0
    1.0106    0.8754   -0.5845 C   0  0  0  0  0  0  0  0  0  0  0  0
    2.8938   -0.9191    0.5315 C   0  0  0  0  0  0  0  0  0  0  0  0
    2.3066    1.2990   -0.2683 C   0  0  0  0  0  0  0  0  0  0  0  0
   -1.2150   -1.3538   -3.4595 C   0  0  0  0  0  0  0  0  0  0  0  0
    3.2321    0.4139    0.2811 C   0  0  0  0  0  0  0  0  0  0  0  0
   -2.6044   -0.7990   -0.3277 H   0  0  0  0  0  0  0  0  0  0  0  0
   -1.7224    0.3495   -1.3134 H   0  0  0  0  0  0  0  0  0  0  0  0
   -3.2150   -1.0521   -2.7481 H   0  0  0  0  0  0  0  0  0  0  0  0
   -0.9312   -3.3803   -0.0712 H   0  0  0  0  0  0  0  0  0  0  0  0
    1.4392   -3.3838    0.7188 H   0  0  0  0  0  0  0  0  0  0  0  0
    0.2931    1.5661   -1.0187 H   0  0  0  0  0  0  0  0  0  0  0  0
    3.6149   -1.6075    0.9592 H   0  0  0  0  0  0  0  0  0  0  0  0
   -2.8387   -3.3443   -2.9409 H   0  0  0  0  0  0  0  0  0  0  0  0
   -3.1520   -3.0121   -1.3763 H   0  0  0  0  0  0  0  0  0  0  0  0
    4.2384    0.7476    0.5253 H   0  0  0  0  0  0  0  0  0  0  0  0
    0.6503   -1.8486   -3.7342 H   0  0  0  0  0  0  0  0  0  0  0  0
  1 14  1  0  0  0  0
  2 15  1  0  0  0  0
  2 27  1  0  0  0  0
  3 15  2  0  0  0  0
  4 10  1  0  0  0  0
  4 11  1  0  0  0  0
  4 21  1  0  0  0  0
  5  9  1  0  0  0  0
  5 24  1  0  0  0  0
  5 25  1  0  0  0  0
  6  7  1  0  0  0  0
  6  8  1  0  0  0  0
  6 11  2  0  0  0  0
  7  9  1  0  0  0  0
  7 17  1  0  0  0  0
  7 18  1  0  0  0  0
  8 10  2  0  0  0  0
  8 12  1  0  0  0  0
  9 15  1  0  0  0  0
  9 19  1  6  0  0  0
 10 13  1  0  0  0  0
 11 20  1  0  0  0  0
 12 14  2  0  0  0  0
 12 22  1  0  0  0  0
 13 16  2  0  0  0  0
 13 23  1  0  0  0  0
 14 16  1  0  0  0  0
 16 26  1  0  0  0  0
M  END
>  <PUBCHEM_COMPOUND_CID>
96735

>  <PUBCHEM_CONFORMER_RMSD>
0.6

>  <PUBCHEM_CONFORMER_DIVERSEORDER>
1
21
23
27
7
6
17
16
25
18
8
20
15
13
19
3
26
9
22
14
12
11
4
5
10
2
24

>  <PUBCHEM_MMFF94_PARTIAL_CHARGES>
23
1 -0.11
10 -0.15
11 -0.3
12 -0.15
13 -0.15
14 0.11
15 0.66
16 -0.15
2 -0.65
20 0.15
21 0.27
22 0.15
23 0.15
24 0.36
25 0.36
26 0.15
27 0.5
3 -0.57
4 0.03
5 -0.99
6 -0.18
7 0.18
9 0.33

>  <PUBCHEM_EFFECTIVE_ROTOR_COUNT>
3

>  <PUBCHEM_PHARMACOPHORE_FEATURES>
10
1 1 hydrophobe
1 2 acceptor
1 3 acceptor
1 4 cation
1 4 donor
1 5 cation
1 5 donor
3 2 3 15 anion
5 4 6 8 10 11 rings
6 8 10 12 13 14 16 rings

>  <PUBCHEM_HEAVY_ATOM_COUNT>
16

>  <PUBCHEM_ATOM_DEF_STEREO_COUNT>
0

>  <PUBCHEM_ATOM_UDEF_STEREO_COUNT>
1

>  <PUBCHEM_BOND_DEF_STEREO_COUNT>
0

>  <PUBCHEM_BOND_UDEF_STEREO_COUNT>
0

>  <PUBCHEM_ISOTOPIC_ATOM_COUNT>
0

>  <PUBCHEM_COMPONENT_COUNT>
1

>  <PUBCHEM_CACTVS_TAUTO_COUNT>
1

>  <PUBCHEM_CONFORMER_ID>
000179DF00000001

>  <PUBCHEM_MMFF94_ENERGY>
20.9886

>  <PUBCHEM_FEATURE_SELFOVERLAP>
50.892

>  <PUBCHEM_SHAPE_FINGERPRINT>
11471102 22 18113907017704346890
11640471 11 17845098359332862833
12403259 327 15647322104417206741
12491281 212 18263649618382218608
13140716 1 18189606327898569578
13618510 140 18409452526420472100
13764800 53 18048323532925062602
14787075 74 18124315167178597895
15490181 8 18412833503275010278
15775835 57 18201723929178119937
16945 1 18409454652334331470
192875 21 18339062822754813833
20510252 161 17617664697134019442
21524375 3 18272090525808676422
21665062 11 17834692495224876801
22094290 62 18410011057116016980
23419403 2 14064036600601634441
23557571 272 16485554645227557526
2748010 2 18192158298407538726
305870 269 18338518525844391474
4175511 71 18193564372126828886
474 4 18409165523688807169
526903 126 17838055166860279408
537710 114 18202278130768364809
63268167 104 18338793420873123914
6333272 397 18409730685624180515
7364860 26 18057606464616908766
74978 22 18337957904190356830
7832392 63 17908425753689332281

>  <PUBCHEM_SHAPE_MULTIPOLES>
313.51
5.41
2.92
1.01
0.7
0.2
-0.2
3.22
0.26
-1.3
0
0.39
0.19
-0.91

>  <PUBCHEM_SHAPE_SELFOVERLAP>
660.978

>  <PUBCHEM_SHAPE_VOLUME>
181.1

>  <PUBCHEM_COORDINATE_TYPE>
2
5
10

$$$$
96735
 OpenBabel12092211543D

 27 28  0  0  1  0  0  0  0  0999 V2000
    2.8050    3.0955   -0.5916 Br  0  0  0  0  0  0  0  0  0  0  0  0
   -3.2838    1.6251   -2.6689 O   0  0  0  0  0  0  0  0  0  0  0  0
   -4.4863    1.2076   -0.7844 O   0  0  0  0  0  0  0  0  0  0  0  0
    0.9914   -2.5586    0.3446 N   0  0  0  0  0  0  0  0  0  0  0  0
   -2.1284    1.0428    0.6217 N   0  0  0  0  0  0  0  0  0  0  0  0
   -0.5449   -1.2179   -0.5323 C   0  0  0  0  0  0  0  0  0  0  0  0
   -1.8190   -0.7222   -1.0920 C   0  0  0  0  0  0  0  0  0  0  0  0
    0.6466   -0.4639   -0.3410 C   0  0  0  0  0  0  0  0  0  0  0  0
   -2.0810    0.7793   -0.8177 C   0  0  1  0  0  0  0  0  0  0  0  0
    1.5947   -1.3284    0.2104 C   0  0  0  0  0  0  0  0  0  0  0  0
   -0.3016   -2.5018   -0.1016 C   0  0  0  0  0  0  0  0  0  0  0  0
    1.0106    0.8754   -0.5845 C   0  0  0  0  0  0  0  0  0  0  0  0
    2.8938   -0.9191    0.5315 C   0  0  0  0  0  0  0  0  0  0  0  0
    2.3066    1.2990   -0.2683 C   0  0  0  0  0  0  0  0  0  0  0  0
   -3.4205    1.2061   -1.3841 C   0  0  0  0  0  0  0  0  0  0  0  0
    3.2321    0.4139    0.2811 C   0  0  0  0  0  0  0  0  0  0  0  0
   -1.8351   -0.9074   -2.1747 H   0  0  0  0  0  0  0  0  0  0  0  0
   -2.6482   -1.3111   -0.6765 H   0  0  0  0  0  0  0  0  0  0  0  0
   -1.2888    1.3972   -1.2570 H   0  0  0  0  0  0  0  0  0  0  0  0
   -0.9312   -3.3803   -0.0712 H   0  0  0  0  0  0  0  0  0  0  0  0
    1.4392   -3.3838    0.7188 H   0  0  0  0  0  0  0  0  0  0  0  0
    0.2931    1.5661   -1.0187 H   0  0  0  0  0  0  0  0  0  0  0  0
    3.6149   -1.6075    0.9592 H   0  0  0  0  0  0  0  0  0  0  0  0
   -2.2104    2.0462    0.7831 H   0  0  0  0  0  0  0  0  0  0  0  0
   -1.2477    0.7582    1.0489 H   0  0  0  0  0  0  0  0  0  0  0  0
    4.2384    0.7476    0.5253 H   0  0  0  0  0  0  0  0  0  0  0  0
   -4.1395    1.9126   -3.0526 H   0  0  0  0  0  0  0  0  0  0  0  0
  1 14  1  0  0  0  0
  2 15  1  0  0  0  0
  2 27  1  0  0  0  0
  3 15  2  0  0  0  0
  4 10  1  0  0  0  0
  4 11  1  0  0  0  0
  4 21  1  0  0  0  0
  5  9  1  0  0  0  0
  5 24  1  0  0  0  0
  5 25  1  0  0  0  0
  6  7  1  0  0  0  0
  6  8  1  0  0  0  0
  6 11  2  0  0  0  0
  7  9  1  0  0  0  0
  7 17  1  0  0  0  0
  7 18  1  0  0  0  0
  8 10  2  0  0  0  0
  8 12  1  0  0  0  0
  9 15  1  0  0  0  0
  9 19  1  6  0  0  0
 10 13  1  0  0  0  0
 11 20  1  0  0  0  0
 12 14  2  0  0  0  0
 12 22  1  0  0  0  0
 13 16  2  0  0  0  0
 13 23  1  0  0  0  0
 14 16  1  0  0  0  0
 16 26  1  0  0  0  0
M  END
>  <PUBCHEM_COMPOUND_CID>
96735

>  <PUBCHEM_CONFORMER_RMSD>
0.6

>  <PUBCHEM_CONFORMER_DIVERSEORDER>
1
21
23
27
7
6
17
16
25
18
8
20
15
13
19
3
26
9
22
14
12
11
4
5
10
2
24

>  <PUBCHEM_MMFF94_PARTIAL_CHARGES>
23
1 -0.11
10 -0.15
11 -0.3
12 -0.15
13 -0.15
14 0.11
15 0.66
16 -0.15
2 -0.65
20 0.15
21 0.27
22 0.15
23 0.15
24 0.36
25 0.36
26 0.15
27 0.5
3 -0.57
4 0.03
5 -0.99
6 -0.18
7 0.18
9 0.33

>  <PUBCHEM_EFFECTIVE_ROTOR_COUNT>
3

>  <PUBCHEM_PHARMACOPHORE_FEATURES>
10
1 1 hydrophobe
1 2 acceptor
1 3 acceptor
1 4 cation
1 4 donor
1 5 cation
1 5 donor
3 2 3 15 anion
5 4 6 8 10 11 rings
6 8 10 12 13 14 16 rings

>  <PUBCHEM_HEAVY_ATOM_COUNT>
16

>  <PUBCHEM_ATOM_DEF_STEREO_COUNT>
0

>  <PUBCHEM_ATOM_UDEF_STEREO_COUNT>
1

>  <PUBCHEM_BOND_DEF_STEREO_COUNT>
0

>  <PUBCHEM_BOND_UDEF_STEREO_COUNT>
0

>  <PUBCHEM_ISOTOPIC_ATOM_COUNT>
0

>  <PUBCHEM_COMPONENT_COUNT>
1

>  <PUBCHEM_CACTVS_TAUTO_COUNT>
1

>  <PUBCHEM_CONFORMER_ID>
000179DF00000001

>  <PUBCHEM_MMFF94_ENERGY>
20.9886

>  <PUBCHEM_FEATURE_SELFOVERLAP>
50.892

>  <PUBCHEM_SHAPE_FINGERPRINT>
11471102 22 18113907017704346890
11640471 11 17845098359332862833
12403259 327 15647322104417206741
12491281 212 18263649618382218608
13140716 1 18189606327898569578
13618510 140 18409452526420472100
13764800 53 18048323532925062602
14787075 74 18124315167178597895
15490181 8 18412833503275010278
15775835 57 18201723929178119937
16945 1 18409454652334331470
192875 21 18339062822754813833
20510252 161 17617664697134019442
21524375 3 18272090525808676422
21665062 11 17834692495224876801
22094290 62 18410011057116016980
23419403 2 14064036600601634441
23557571 272 16485554645227557526
2748010 2 18192158298407538726
305870 269 18338518525844391474
4175511 71 18193564372126828886
474 4 18409165523688807169
526903 126 17838055166860279408
537710 114 18202278130768364809
63268167 104 18338793420873123914
6333272 397 18409730685624180515
7364860 26 18057606464616908766
74978 22 18337957904190356830
7832392 63 17908425753689332281

>  <PUBCHEM_SHAPE_MULTIPOLES>
313.51
5.41
2.92
1.01
0.7
0.2
-0.2
3.22
0.26
-1.3
0
0.39
0.19
-0.91

>  <PUBCHEM_SHAPE_SELFOVERLAP>
660.978

>  <PUBCHEM_SHAPE_VOLUME>
181.1

>  <PUBCHEM_COORDINATE_TYPE>
2
5
10

$$$$
96735
 OpenBabel12092211543D

 27 28  0  0  1  0  0  0  0  0999 V2000
    2.8050    3.0955   -0.5916 Br  0  0  0  0  0  0  0  0  0  0  0  0
   -1.0434   -1.3627   -3.5438 O   0  0  0  0  0  0  0  0  0  0  0  0
   -0.0890    0.6534   -3.9865 O   0  0  0  0  0  0  0  0  0  0  0  0
    0.9914   -2.5586    0.3446 N   0  0  0  0  0  0  0  0  0  0  0  0
   -2.9481    0.8621   -2.6292 N   0  0  0  0  0  0  0  0  0  0  0  0
   -0.5449   -1.2179   -0.5323 C   0  0  0  0  0  0  0  0  0  0  0  0
   -1.8190   -0.7222   -1.0920 C   0  0  0  0  0  0  0  0  0  0  0  0
    0.6466   -0.4639   -0.3410 C   0  0  0  0  0  0  0  0  0  0  0  0
   -1.6475    0.4244   -2.1187 C   0  0  1  0  0  0  0  0  0  0  0  0
    1.5947   -1.3284    0.2104 C   0  0  0  0  0  0  0  0  0  0  0  0
   -0.3016   -2.5018   -0.1016 C   0  0  0  0  0  0  0  0  0  0  0  0
    1.0106    0.8754   -0.5845 C   0  0  0  0  0  0  0  0  0  0  0  0
    2.8938   -0.9191    0.5315 C   0  0  0  0  0  0  0  0  0  0  0  0
    2.3066    1.2990   -0.2683 C   0  0  0  0  0  0  0  0  0  0  0  0
   -0.8419   -0.0389   -3.3162 C   0  0  0  0  0  0  0  0  0  0  0  0
    3.2321    0.4139    0.2811 C   0  0  0  0  0  0  0  0  0  0  0  0
   -2.3586   -1.5575   -1.5589 H   0  0  0  0  0  0  0  0  0  0  0  0
   -2.4614   -0.3738   -0.2717 H   0  0  0  0  0  0  0  0  0  0  0  0
   -1.1486    1.2854   -1.6581 H   0  0  0  0  0  0  0  0  0  0  0  0
   -0.9312   -3.3803   -0.0712 H   0  0  0  0  0  0  0  0  0  0  0  0
    1.4392   -3.3838    0.7188 H   0  0  0  0  0  0  0  0  0  0  0  0
    0.2931    1.5661   -1.0187 H   0  0  0  0  0  0  0  0  0  0  0  0
    3.6149   -1.6075    0.9592 H   0  0  0  0  0  0  0  0  0  0  0  0
   -2.8229    1.6746   -3.2323 H   0  0  0  0  0  0  0  0  0  0  0  0
   -3.5312    1.1727   -1.8529 H   0  0  0  0  0  0  0  0  0  0  0  0
    4.2384    0.7476    0.5253 H   0  0  0  0  0  0  0  0  0  0  0  0
   -0.5251   -1.6846   -4.3118 H   0  0  0  0  0  0  0  0  0  0  0  0
  1 14  1  0  0  0  0
  2 15  1  0  0  0  0
  2 27  1  0  0  0  0
  3 15  2  0  0  0  0
  4 10  1  0  0  0  0
  4 11  1  0  0  0  0
  4 21  1  0  0  0  0
  5  9  1  0  0  0  0
  5 24  1  0  0  0  0
  5 25  1  0  0  0  0
  6  7  1  0  0  0  0
  6  8  1  0  0  0  0
  6 11  2  0  0  0  0
  7  9  1  0  0  0  0
  7 17  1  0  0  0  0
  7 18  1  0  0  0  0
  8 10  2  0  0  0  0
  8 12  1  0  0  0  0
  9 15  1  0  0  0  0
  9 19  1  1  0  0  0
 10 13  1  0  0  0  0
 11 20  1  0  0  0  0
 12 14  2  0  0  0  0
 12 22  1  0  0  0  0
 13 16  2  0  0  0  0
 13 23  1  0  0  0  0
 14 16  1  0  0  0  0
 16 26  1  0  0  0  0
M  END
>  <PUBCHEM_COMPOUND_CID>
96735

>  <PUBCHEM_CONFORMER_RMSD>
0.6

>  <PUBCHEM_CONFORMER_DIVERSEORDER>
1
21
23
27
7
6
17
16
25
18
8
20
15
13
19
3
26
9
22
14
12
11
4
5
10
2
24

>  <PUBCHEM_MMFF94_PARTIAL_CHARGES>
23
1 -0.11
10 -0.15
11 -0.3
12 -0.15
13 -0.15
14 0.11
15 0.66
16 -0.15
2 -0.65
20 0.15
21 0.27
22 0.15
23 0.15
24 0.36
25 0.36
26 0.15
27 0.5
3 -0.57
4 0.03
5 -0.99
6 -0.18
7 0.18
9 0.33

>  <PUBCHEM_EFFECTIVE_ROTOR_COUNT>
3

>  <PUBCHEM_PHARMACOPHORE_FEATURES>
10
1 1 hydrophobe
1 2 acceptor
1 3 acceptor
1 4 cation
1 4 donor
1 5 cation
1 5 donor
3 2 3 15 anion
5 4 6 8 10 11 rings
6 8 10 12 13 14 16 rings

>  <PUBCHEM_HEAVY_ATOM_COUNT>
16

>  <PUBCHEM_ATOM_DEF_STEREO_COUNT>
0

>  <PUBCHEM_ATOM_UDEF_STEREO_COUNT>
1

>  <PUBCHEM_BOND_DEF_STEREO_COUNT>
0

>  <PUBCHEM_BOND_UDEF_STEREO_COUNT>
0

>  <PUBCHEM_ISOTOPIC_ATOM_COUNT>
0

>  <PUBCHEM_COMPONENT_COUNT>
1

>  <PUBCHEM_CACTVS_TAUTO_COUNT>
1

>  <PUBCHEM_CONFORMER_ID>
000179DF00000001

>  <PUBCHEM_MMFF94_ENERGY>
20.9886

>  <PUBCHEM_FEATURE_SELFOVERLAP>
50.892

>  <PUBCHEM_SHAPE_FINGERPRINT>
11471102 22 18113907017704346890
11640471 11 17845098359332862833
12403259 327 15647322104417206741
12491281 212 18263649618382218608
13140716 1 18189606327898569578
13618510 140 18409452526420472100
13764800 53 18048323532925062602
14787075 74 18124315167178597895
15490181 8 18412833503275010278
15775835 57 18201723929178119937
16945 1 18409454652334331470
192875 21 18339062822754813833
20510252 161 17617664697134019442
21524375 3 18272090525808676422
21665062 11 17834692495224876801
22094290 62 18410011057116016980
23419403 2 14064036600601634441
23557571 272 16485554645227557526
2748010 2 18192158298407538726
305870 269 18338518525844391474
4175511 71 18193564372126828886
474 4 18409165523688807169
526903 126 17838055166860279408
537710 114 18202278130768364809
63268167 104 18338793420873123914
6333272 397 18409730685624180515
7364860 26 18057606464616908766
74978 22 18337957904190356830
7832392 63 17908425753689332281

>  <PUBCHEM_SHAPE_MULTIPOLES>
313.51
5.41
2.92
1.01
0.7
0.2
-0.2
3.22
0.26
-1.3
0
0.39
0.19
-0.91

>  <PUBCHEM_SHAPE_SELFOVERLAP>
660.978

>  <PUBCHEM_SHAPE_VOLUME>
181.1

>  <PUBCHEM_COORDINATE_TYPE>
2
5
10

$$$$
96735
 OpenBabel12092211543D

 27 28  0  0  1  0  0  0  0  0999 V2000
    2.8050    3.0955   -0.5916 Br  0  0  0  0  0  0  0  0  0  0  0  0
   -4.2993    0.1707   -1.3633 O   0  0  0  0  0  0  0  0  0  0  0  0
   -3.6930    2.3126   -1.8278 O   0  0  0  0  0  0  0  0  0  0  0  0
    0.9914   -2.5586    0.3446 N   0  0  0  0  0  0  0  0  0  0  0  0
   -2.1284    1.0428    0.6217 N   0  0  0  0  0  0  0  0  0  0  0  0
   -0.5449   -1.2179   -0.5323 C   0  0  0  0  0  0  0  0  0  0  0  0
   -1.8190   -0.7222   -1.0920 C   0  0  0  0  0  0  0  0  0  0  0  0
    0.6466   -0.4639   -0.3410 C   0  0  0  0  0  0  0  0  0  0  0  0
   -2.0810    0.7793   -0.8177 C   0  0  1  0  0  0  0  0  0  0  0  0
    1.5947   -1.3284    0.2104 C   0  0  0  0  0  0  0  0  0  0  0  0
   -0.3016   -2.5018   -0.1016 C   0  0  0  0  0  0  0  0  0  0  0  0
    1.0106    0.8754   -0.5845 C   0  0  0  0  0  0  0  0  0  0  0  0
    2.8938   -0.9191    0.5315 C   0  0  0  0  0  0  0  0  0  0  0  0
    2.3066    1.2990   -0.2683 C   0  0  0  0  0  0  0  0  0  0  0  0
   -3.4205    1.2061   -1.3841 C   0  0  0  0  0  0  0  0  0  0  0  0
    3.2321    0.4139    0.2811 C   0  0  0  0  0  0  0  0  0  0  0  0
   -1.8351   -0.9074   -2.1747 H   0  0  0  0  0  0  0  0  0  0  0  0
   -2.6482   -1.3111   -0.6765 H   0  0  0  0  0  0  0  0  0  0  0  0
   -1.2888    1.3972   -1.2570 H   0  0  0  0  0  0  0  0  0  0  0  0
   -0.9312   -3.3803   -0.0712 H   0  0  0  0  0  0  0  0  0  0  0  0
    1.4392   -3.3838    0.7188 H   0  0  0  0  0  0  0  0  0  0  0  0
    0.2931    1.5661   -1.0187 H   0  0  0  0  0  0  0  0  0  0  0  0
    3.6149   -1.6075    0.9592 H   0  0  0  0  0  0  0  0  0  0  0  0
   -2.2104    2.0462    0.7831 H   0  0  0  0  0  0  0  0  0  0  0  0
   -1.2477    0.7582    1.0489 H   0  0  0  0  0  0  0  0  0  0  0  0
    4.2384    0.7476    0.5253 H   0  0  0  0  0  0  0  0  0  0  0  0
   -5.1720    0.4244   -1.7324 H   0  0  0  0  0  0  0  0  0  0  0  0
  1 14  1  0  0  0  0
  2 15  1  0  0  0  0
  2 27  1  0  0  0  0
  3 15  2  0  0  0  0
  4 10  1  0  0  0  0
  4 11  1  0  0  0  0
  4 21  1  0  0  0  0
  5  9  1  0  0  0  0
  5 24  1  0  0  0  0
  5 25  1  0  0  0  0
  6  7  1  0  0  0  0
  6  8  1  0  0  0  0
  6 11  2  0  0  0  0
  7  9  1  0  0  0  0
  7 17  1  0  0  0  0
  7 18  1  0  0  0  0
  8 10  2  0  0  0  0
  8 12  1  0  0  0  0
  9 15  1  0  0  0  0
  9 19  1  6  0  0  0
 10 13  1  0  0  0  0
 11 20  1  0  0  0  0
 12 14  2  0  0  0  0
 12 22  1  0  0  0  0
 13 16  2  0  0  0  0
 13 23  1  0  0  0  0
 14 16  1  0  0  0  0
 16 26  1  0  0  0  0
M  END
>  <PUBCHEM_COMPOUND_CID>
96735

>  <PUBCHEM_CONFORMER_RMSD>
0.6

>  <PUBCHEM_CONFORMER_DIVERSEORDER>
1
21
23
27
7
6
17
16
25
18
8
20
15
13
19
3
26
9
22
14
12
11
4
5
10
2
24

>  <PUBCHEM_MMFF94_PARTIAL_CHARGES>
23
1 -0.11
10 -0.15
11 -0.3
12 -0.15
13 -0.15
14 0.11
15 0.66
16 -0.15
2 -0.65
20 0.15
21 0.27
22 0.15
23 0.15
24 0.36
25 0.36
26 0.15
27 0.5
3 -0.57
4 0.03
5 -0.99
6 -0.18
7 0.18
9 0.33

>  <PUBCHEM_EFFECTIVE_ROTOR_COUNT>
3

>  <PUBCHEM_PHARMACOPHORE_FEATURES>
10
1 1 hydrophobe
1 2 acceptor
1 3 acceptor
1 4 cation
1 4 donor
1 5 cation
1 5 donor
3 2 3 15 anion
5 4 6 8 10 11 rings
6 8 10 12 13 14 16 rings

>  <PUBCHEM_HEAVY_ATOM_COUNT>
16

>  <PUBCHEM_ATOM_DEF_STEREO_COUNT>
0

>  <PUBCHEM_ATOM_UDEF_STEREO_COUNT>
1

>  <PUBCHEM_BOND_DEF_STEREO_COUNT>
0

>  <PUBCHEM_BOND_UDEF_STEREO_COUNT>
0

>  <PUBCHEM_ISOTOPIC_ATOM_COUNT>
0

>  <PUBCHEM_COMPONENT_COUNT>
1

>  <PUBCHEM_CACTVS_TAUTO_COUNT>
1

>  <PUBCHEM_CONFORMER_ID>
000179DF00000001

>  <PUBCHEM_MMFF94_ENERGY>
20.9886

>  <PUBCHEM_FEATURE_SELFOVERLAP>
50.892

>  <PUBCHEM_SHAPE_FINGERPRINT>
11471102 22 18113907017704346890
11640471 11 17845098359332862833
12403259 327 15647322104417206741
12491281 212 18263649618382218608
13140716 1 18189606327898569578
13618510 140 18409452526420472100
13764800 53 18048323532925062602
14787075 74 18124315167178597895
15490181 8 18412833503275010278
15775835 57 18201723929178119937
16945 1 18409454652334331470
192875 21 18339062822754813833
20510252 161 17617664697134019442
21524375 3 18272090525808676422
21665062 11 17834692495224876801
22094290 62 18410011057116016980
23419403 2 14064036600601634441
23557571 272 16485554645227557526
2748010 2 18192158298407538726
305870 269 18338518525844391474
4175511 71 18193564372126828886
474 4 18409165523688807169
526903 126 17838055166860279408
537710 114 18202278130768364809
63268167 104 18338793420873123914
6333272 397 18409730685624180515
7364860 26 18057606464616908766
74978 22 18337957904190356830
7832392 63 17908425753689332281

>  <PUBCHEM_SHAPE_MULTIPOLES>
313.51
5.41
2.92
1.01
0.7
0.2
-0.2
3.22
0.26
-1.3
0
0.39
0.19
-0.91

>  <PUBCHEM_SHAPE_SELFOVERLAP>
660.978

>  <PUBCHEM_SHAPE_VOLUME>
181.1

>  <PUBCHEM_COORDINATE_TYPE>
2
5
10

$$$$
96735
 OpenBabel12092211543D

 27 28  0  0  1  0  0  0  0  0999 V2000
    2.8050    3.0955   -0.5916 Br  0  0  0  0  0  0  0  0  0  0  0  0
   -3.7296   -3.8825   -1.5707 O   0  0  0  0  0  0  0  0  0  0  0  0
   -2.7781   -2.9888    0.2914 O   0  0  0  0  0  0  0  0  0  0  0  0
    0.9914   -2.5586    0.3446 N   0  0  0  0  0  0  0  0  0  0  0  0
   -3.8824   -1.2412   -2.3652 N   0  0  0  0  0  0  0  0  0  0  0  0
   -0.5449   -1.2179   -0.5323 C   0  0  0  0  0  0  0  0  0  0  0  0
   -1.8190   -0.7222   -1.0920 C   0  0  0  0  0  0  0  0  0  0  0  0
    0.6466   -0.4639   -0.3410 C   0  0  0  0  0  0  0  0  0  0  0  0
   -2.6366   -1.8036   -1.8405 C   0  0  1  0  0  0  0  0  0  0  0  0
    1.5947   -1.3284    0.2104 C   0  0  0  0  0  0  0  0  0  0  0  0
   -0.3016   -2.5018   -0.1016 C   0  0  0  0  0  0  0  0  0  0  0  0
    1.0106    0.8754   -0.5845 C   0  0  0  0  0  0  0  0  0  0  0  0
    2.8938   -0.9191    0.5315 C   0  0  0  0  0  0  0  0  0  0  0  0
    2.3066    1.2990   -0.2683 C   0  0  0  0  0  0  0  0  0  0  0  0
   -3.0263   -2.9304   -0.9045 C   0  0  0  0  0  0  0  0  0  0  0  0
    3.2321    0.4139    0.2811 C   0  0  0  0  0  0  0  0  0  0  0  0
   -2.4273   -0.2941   -0.2836 H   0  0  0  0  0  0  0  0  0  0  0  0
   -1.6110    0.1084   -1.7804 H   0  0  0  0  0  0  0  0  0  0  0  0
   -2.0610   -2.2128   -2.6794 H   0  0  0  0  0  0  0  0  0  0  0  0
   -0.9312   -3.3803   -0.0712 H   0  0  0  0  0  0  0  0  0  0  0  0
    1.4392   -3.3838    0.7188 H   0  0  0  0  0  0  0  0  0  0  0  0
    0.2931    1.5661   -1.0187 H   0  0  0  0  0  0  0  0  0  0  0  0
    3.6149   -1.6075    0.9592 H   0  0  0  0  0  0  0  0  0  0  0  0
   -4.3623   -1.9411   -2.9303 H   0  0  0  0  0  0  0  0  0  0  0  0
   -3.6683   -0.4677   -2.9938 H   0  0  0  0  0  0  0  0  0  0  0  0
    4.2384    0.7476    0.5253 H   0  0  0  0  0  0  0  0  0  0  0  0
   -3.9977   -4.6187   -0.9806 H   0  0  0  0  0  0  0  0  0  0  0  0
  1 14  1  0  0  0  0
  2 15  1  0  0  0  0
  2 27  1  0  0  0  0
  3 15  2  0  0  0  0
  4 10  1  0  0  0  0
  4 11  1  0  0  0  0
  4 21  1  0  0  0  0
  5  9  1  0  0  0  0
  5 24  1  0  0  0  0
  5 25  1  0  0  0  0
  6  7  1  0  0  0  0
  6  8  1  0  0  0  0
  6 11  2  0  0  0  0
  7  9  1  0  0  0  0
  7 17  1  0  0  0  0
  7 18  1  0  0  0  0
  8 10  2  0  0  0  0
  8 12  1  0  0  0  0
  9 15  1  0  0  0  0
  9 19  1  6  0  0  0
 10 13  1  0  0  0  0
 11 20  1  0  0  0  0
 12 14  2  0  0  0  0
 12 22  1  0  0  0  0
 13 16  2  0  0  0  0
 13 23  1  0  0  0  0
 14 16  1  0  0  0  0
 16 26  1  0  0  0  0
M  END
>  <PUBCHEM_COMPOUND_CID>
96735

>  <PUBCHEM_CONFORMER_RMSD>
0.6

>  <PUBCHEM_CONFORMER_DIVERSEORDER>
1
21
23
27
7
6
17
16
25
18
8
20
15
13
19
3
26
9
22
14
12
11
4
5
10
2
24

>  <PUBCHEM_MMFF94_PARTIAL_CHARGES>
23
1 -0.11
10 -0.15
11 -0.3
12 -0.15
13 -0.15
14 0.11
15 0.66
16 -0.15
2 -0.65
20 0.15
21 0.27
22 0.15
23 0.15
24 0.36
25 0.36
26 0.15
27 0.5
3 -0.57
4 0.03
5 -0.99
6 -0.18
7 0.18
9 0.33

>  <PUBCHEM_EFFECTIVE_ROTOR_COUNT>
3

>  <PUBCHEM_PHARMACOPHORE_FEATURES>
10
1 1 hydrophobe
1 2 acceptor
1 3 acceptor
1 4 cation
1 4 donor
1 5 cation
1 5 donor
3 2 3 15 anion
5 4 6 8 10 11 rings
6 8 10 12 13 14 16 rings

>  <PUBCHEM_HEAVY_ATOM_COUNT>
16

>  <PUBCHEM_ATOM_DEF_STEREO_COUNT>
0

>  <PUBCHEM_ATOM_UDEF_STEREO_COUNT>
1

>  <PUBCHEM_BOND_DEF_STEREO_COUNT>
0

>  <PUBCHEM_BOND_UDEF_STEREO_COUNT>
0

>  <PUBCHEM_ISOTOPIC_ATOM_COUNT>
0

>  <PUBCHEM_COMPONENT_COUNT>
1

>  <PUBCHEM_CACTVS_TAUTO_COUNT>
1

>  <PUBCHEM_CONFORMER_ID>
000179DF00000001

>  <PUBCHEM_MMFF94_ENERGY>
20.9886

>  <PUBCHEM_FEATURE_SELFOVERLAP>
50.892

>  <PUBCHEM_SHAPE_FINGERPRINT>
11471102 22 18113907017704346890
11640471 11 17845098359332862833
12403259 327 15647322104417206741
12491281 212 18263649618382218608
13140716 1 18189606327898569578
13618510 140 18409452526420472100
13764800 53 18048323532925062602
14787075 74 18124315167178597895
15490181 8 18412833503275010278
15775835 57 18201723929178119937
16945 1 18409454652334331470
192875 21 18339062822754813833
20510252 161 17617664697134019442
21524375 3 18272090525808676422
21665062 11 17834692495224876801
22094290 62 18410011057116016980
23419403 2 14064036600601634441
23557571 272 16485554645227557526
2748010 2 18192158298407538726
305870 269 18338518525844391474
4175511 71 18193564372126828886
474 4 18409165523688807169
526903 126 17838055166860279408
537710 114 18202278130768364809
63268167 104 18338793420873123914
6333272 397 18409730685624180515
7364860 26 18057606464616908766
74978 22 18337957904190356830
7832392 63 17908425753689332281

>  <PUBCHEM_SHAPE_MULTIPOLES>
313.51
5.41
2.92
1.01
0.7
0.2
-0.2
3.22
0.26
-1.3
0
0.39
0.19
-0.91

>  <PUBCHEM_SHAPE_SELFOVERLAP>
660.978

>  <PUBCHEM_SHAPE_VOLUME>
181.1

>  <PUBCHEM_COORDINATE_TYPE>
2
5
10

$$$$
96735
 OpenBabel12092211543D

 27 28  0  0  1  0  0  0  0  0999 V2000
    2.8050    3.0955   -0.5916 Br  0  0  0  0  0  0  0  0  0  0  0  0
   -1.3425    1.7065   -0.1447 O   0  0  0  0  0  0  0  0  0  0  0  0
   -2.3798    1.3529    1.8478 O   0  0  0  0  0  0  0  0  0  0  0  0
    0.9914   -2.5586    0.3446 N   0  0  0  0  0  0  0  0  0  0  0  0
   -4.0287    0.3142   -0.6547 N   0  0  0  0  0  0  0  0  0  0  0  0
   -0.5449   -1.2179   -0.5323 C   0  0  0  0  0  0  0  0  0  0  0  0
   -1.8190   -0.7222   -1.0920 C   0  0  0  0  0  0  0  0  0  0  0  0
    0.6466   -0.4639   -0.3410 C   0  0  0  0  0  0  0  0  0  0  0  0
   -2.7922   -0.1573   -0.0281 C   0  0  1  0  0  0  0  0  0  0  0  0
    1.5947   -1.3284    0.2104 C   0  0  0  0  0  0  0  0  0  0  0  0
   -0.3016   -2.5018   -0.1016 C   0  0  0  0  0  0  0  0  0  0  0  0
    1.0106    0.8754   -0.5845 C   0  0  0  0  0  0  0  0  0  0  0  0
    2.8938   -0.9191    0.5315 C   0  0  0  0  0  0  0  0  0  0  0  0
    2.3066    1.2990   -0.2683 C   0  0  0  0  0  0  0  0  0  0  0  0
   -2.1820    1.0334    0.6841 C   0  0  0  0  0  0  0  0  0  0  0  0
    3.2321    0.4139    0.2811 C   0  0  0  0  0  0  0  0  0  0  0  0
   -1.6078    0.0494   -1.8449 H   0  0  0  0  0  0  0  0  0  0  0  0
   -2.3164   -1.5386   -1.6333 H   0  0  0  0  0  0  0  0  0  0  0  0
   -3.0494   -0.9272    0.7093 H   0  0  0  0  0  0  0  0  0  0  0  0
   -0.9312   -3.3803   -0.0712 H   0  0  0  0  0  0  0  0  0  0  0  0
    1.4392   -3.3838    0.7188 H   0  0  0  0  0  0  0  0  0  0  0  0
    0.2931    1.5661   -1.0187 H   0  0  0  0  0  0  0  0  0  0  0  0
    3.6149   -1.6075    0.9592 H   0  0  0  0  0  0  0  0  0  0  0  0
   -4.6912    0.5974    0.0667 H   0  0  0  0  0  0  0  0  0  0  0  0
   -4.4696   -0.4547   -1.1582 H   0  0  0  0  0  0  0  0  0  0  0  0
    4.2384    0.7476    0.5253 H   0  0  0  0  0  0  0  0  0  0  0  0
   -0.9312    2.4782    0.2995 H   0  0  0  0  0  0  0  0  0  0  0  0
  1 14  1  0  0  0  0
  2 15  1  0  0  0  0
  2 27  1  0  0  0  0
  3 15  2  0  0  0  0
  4 10  1  0  0  0  0
  4 11  1  0  0  0  0
  4 21  1  0  0  0  0
  5  9  1  0  0  0  0
  5 24  1  0  0  0  0
  5 25  1  0  0  0  0
  6  7  1  0  0  0  0
  6  8  1  0  0  0  0
  6 11  2  0  0  0  0
  7  9  1  0  0  0  0
  7 17  1  0  0  0  0
  7 18  1  0  0  0  0
  8 10  2  0  0  0  0
  8 12  1  0  0  0  0
  9 15  1  0  0  0  0
  9 19  1  1  0  0  0
 10 13  1  0  0  0  0
 11 20  1  0  0  0  0
 12 14  2  0  0  0  0
 12 22  1  0  0  0  0
 13 16  2  0  0  0  0
 13 23  1  0  0  0  0
 14 16  1  0  0  0  0
 16 26  1  0  0  0  0
M  END
>  <PUBCHEM_COMPOUND_CID>
96735

>  <PUBCHEM_CONFORMER_RMSD>
0.6

>  <PUBCHEM_CONFORMER_DIVERSEORDER>
1
21
23
27
7
6
17
16
25
18
8
20
15
13
19
3
26
9
22
14
12
11
4
5
10
2
24

>  <PUBCHEM_MMFF94_PARTIAL_CHARGES>
23
1 -0.11
10 -0.15
11 -0.3
12 -0.15
13 -0.15
14 0.11
15 0.66
16 -0.15
2 -0.65
20 0.15
21 0.27
22 0.15
23 0.15
24 0.36
25 0.36
26 0.15
27 0.5
3 -0.57
4 0.03
5 -0.99
6 -0.18
7 0.18
9 0.33

>  <PUBCHEM_EFFECTIVE_ROTOR_COUNT>
3

>  <PUBCHEM_PHARMACOPHORE_FEATURES>
10
1 1 hydrophobe
1 2 acceptor
1 3 acceptor
1 4 cation
1 4 donor
1 5 cation
1 5 donor
3 2 3 15 anion
5 4 6 8 10 11 rings
6 8 10 12 13 14 16 rings

>  <PUBCHEM_HEAVY_ATOM_COUNT>
16

>  <PUBCHEM_ATOM_DEF_STEREO_COUNT>
0

>  <PUBCHEM_ATOM_UDEF_STEREO_COUNT>
1

>  <PUBCHEM_BOND_DEF_STEREO_COUNT>
0

>  <PUBCHEM_BOND_UDEF_STEREO_COUNT>
0

>  <PUBCHEM_ISOTOPIC_ATOM_COUNT>
0

>  <PUBCHEM_COMPONENT_COUNT>
1

>  <PUBCHEM_CACTVS_TAUTO_COUNT>
1

>  <PUBCHEM_CONFORMER_ID>
000179DF00000001

>  <PUBCHEM_MMFF94_ENERGY>
20.9886

>  <PUBCHEM_FEATURE_SELFOVERLAP>
50.892

>  <PUBCHEM_SHAPE_FINGERPRINT>
11471102 22 18113907017704346890
11640471 11 17845098359332862833
12403259 327 15647322104417206741
12491281 212 18263649618382218608
13140716 1 18189606327898569578
13618510 140 18409452526420472100
13764800 53 18048323532925062602
14787075 74 18124315167178597895
15490181 8 18412833503275010278
15775835 57 18201723929178119937
16945 1 18409454652334331470
192875 21 18339062822754813833
20510252 161 17617664697134019442
21524375 3 18272090525808676422
21665062 11 17834692495224876801
22094290 62 18410011057116016980
23419403 2 14064036600601634441
23557571 272 16485554645227557526
2748010 2 18192158298407538726
305870 269 18338518525844391474
4175511 71 18193564372126828886
474 4 18409165523688807169
526903 126 17838055166860279408
537710 114 18202278130768364809
63268167 104 18338793420873123914
6333272 397 18409730685624180515
7364860 26 18057606464616908766
74978 22 18337957904190356830
7832392 63 17908425753689332281

>  <PUBCHEM_SHAPE_MULTIPOLES>
313.51
5.41
2.92
1.01
0.7
0.2
-0.2
3.22
0.26
-1.3
0
0.39
0.19
-0.91

>  <PUBCHEM_SHAPE_SELFOVERLAP>
660.978

>  <PUBCHEM_SHAPE_VOLUME>
181.1

>  <PUBCHEM_COORDINATE_TYPE>
2
5
10

$$$$
96735
 OpenBabel12092211543D

 27 28  0  0  1  0  0  0  0  0999 V2000
    2.8050    3.0955   -0.5916 Br  0  0  0  0  0  0  0  0  0  0  0  0
   -2.8144   -3.1349   -0.6850 O   0  0  0  0  0  0  0  0  0  0  0  0
   -3.7212   -2.6694    1.3478 O   0  0  0  0  0  0  0  0  0  0  0  0
    0.9914   -2.5586    0.3446 N   0  0  0  0  0  0  0  0  0  0  0  0
   -2.7778   -0.0854    1.1042 N   0  0  0  0  0  0  0  0  0  0  0  0
   -0.5449   -1.2179   -0.5323 C   0  0  0  0  0  0  0  0  0  0  0  0
   -1.8190   -0.7222   -1.0920 C   0  0  0  0  0  0  0  0  0  0  0  0
    0.6466   -0.4639   -0.3410 C   0  0  0  0  0  0  0  0  0  0  0  0
   -3.0197   -0.8480   -0.1221 C   0  0  1  0  0  0  0  0  0  0  0  0
    1.5947   -1.3284    0.2104 C   0  0  0  0  0  0  0  0  0  0  0  0
   -0.3016   -2.5018   -0.1016 C   0  0  0  0  0  0  0  0  0  0  0  0
    1.0106    0.8754   -0.5845 C   0  0  0  0  0  0  0  0  0  0  0  0
    2.8938   -0.9191    0.5315 C   0  0  0  0  0  0  0  0  0  0  0  0
    2.3066    1.2990   -0.2683 C   0  0  0  0  0  0  0  0  0  0  0  0
   -3.2285   -2.2903    0.2947 C   0  0  0  0  0  0  0  0  0  0  0  0
    3.2321    0.4139    0.2811 C   0  0  0  0  0  0  0  0  0  0  0  0
   -1.6977    0.3270   -1.3943 H   0  0  0  0  0  0  0  0  0  0  0  0
   -2.0459   -1.2739   -2.0146 H   0  0  0  0  0  0  0  0  0  0  0  0
   -3.9367   -0.4701   -0.5898 H   0  0  0  0  0  0  0  0  0  0  0  0
   -0.9312   -3.3803   -0.0712 H   0  0  0  0  0  0  0  0  0  0  0  0
    1.4392   -3.3838    0.7188 H   0  0  0  0  0  0  0  0  0  0  0  0
    0.2931    1.5661   -1.0187 H   0  0  0  0  0  0  0  0  0  0  0  0
    3.6149   -1.6075    0.9592 H   0  0  0  0  0  0  0  0  0  0  0  0
   -3.6125   -0.1052    1.6894 H   0  0  0  0  0  0  0  0  0  0  0  0
   -2.6190    0.8939    0.8700 H   0  0  0  0  0  0  0  0  0  0  0  0
    4.2384    0.7476    0.5253 H   0  0  0  0  0  0  0  0  0  0  0  0
   -2.9472   -4.0748   -0.4377 H   0  0  0  0  0  0  0  0  0  0  0  0
  1 14  1  0  0  0  0
  2 15  1  0  0  0  0
  2 27  1  0  0  0  0
  3 15  2  0  0  0  0
  4 10  1  0  0  0  0
  4 11  1  0  0  0  0
  4 21  1  0  0  0  0
  5  9  1  0  0  0  0
  5 24  1  0  0  0  0
  5 25  1  0  0  0  0
  6  7  1  0  0  0  0
  6  8  1  0  0  0  0
  6 11  2  0  0  0  0
  7  9  1  0  0  0  0
  7 17  1  0  0  0  0
  7 18  1  0  0  0  0
  8 10  2  0  0  0  0
  8 12  1  0  0  0  0
  9 15  1  0  0  0  0
  9 19  1  6  0  0  0
 10 13  1  0  0  0  0
 11 20  1  0  0  0  0
 12 14  2  0  0  0  0
 12 22  1  0  0  0  0
 13 16  2  0  0  0  0
 13 23  1  0  0  0  0
 14 16  1  0  0  0  0
 16 26  1  0  0  0  0
M  END
>  <PUBCHEM_COMPOUND_CID>
96735

>  <PUBCHEM_CONFORMER_RMSD>
0.6

>  <PUBCHEM_CONFORMER_DIVERSEORDER>
1
21
23
27
7
6
17
16
25
18
8
20
15
13
19
3
26
9
22
14
12
11
4
5
10
2
24

>  <PUBCHEM_MMFF94_PARTIAL_CHARGES>
23
1 -0.11
10 -0.15
11 -0.3
12 -0.15
13 -0.15
14 0.11
15 0.66
16 -0.15
2 -0.65
20 0.15
21 0.27
22 0.15
23 0.15
24 0.36
25 0.36
26 0.15
27 0.5
3 -0.57
4 0.03
5 -0.99
6 -0.18
7 0.18
9 0.33

>  <PUBCHEM_EFFECTIVE_ROTOR_COUNT>
3

>  <PUBCHEM_PHARMACOPHORE_FEATURES>
10
1 1 hydrophobe
1 2 acceptor
1 3 acceptor
1 4 cation
1 4 donor
1 5 cation
1 5 donor
3 2 3 15 anion
5 4 6 8 10 11 rings
6 8 10 12 13 14 16 rings

>  <PUBCHEM_HEAVY_ATOM_COUNT>
16

>  <PUBCHEM_ATOM_DEF_STEREO_COUNT>
0

>  <PUBCHEM_ATOM_UDEF_STEREO_COUNT>
1

>  <PUBCHEM_BOND_DEF_STEREO_COUNT>
0

>  <PUBCHEM_BOND_UDEF_STEREO_COUNT>
0

>  <PUBCHEM_ISOTOPIC_ATOM_COUNT>
0

>  <PUBCHEM_COMPONENT_COUNT>
1

>  <PUBCHEM_CACTVS_TAUTO_COUNT>
1

>  <PUBCHEM_CONFORMER_ID>
000179DF00000001

>  <PUBCHEM_MMFF94_ENERGY>
20.9886

>  <PUBCHEM_FEATURE_SELFOVERLAP>
50.892

>  <PUBCHEM_SHAPE_FINGERPRINT>
11471102 22 18113907017704346890
11640471 11 17845098359332862833
12403259 327 15647322104417206741
12491281 212 18263649618382218608
13140716 1 18189606327898569578
13618510 140 18409452526420472100
13764800 53 18048323532925062602
14787075 74 18124315167178597895
15490181 8 18412833503275010278
15775835 57 18201723929178119937
16945 1 18409454652334331470
192875 21 18339062822754813833
20510252 161 17617664697134019442
21524375 3 18272090525808676422
21665062 11 17834692495224876801
22094290 62 18410011057116016980
23419403 2 14064036600601634441
23557571 272 16485554645227557526
2748010 2 18192158298407538726
305870 269 18338518525844391474
4175511 71 18193564372126828886
474 4 18409165523688807169
526903 126 17838055166860279408
537710 114 18202278130768364809
63268167 104 18338793420873123914
6333272 397 18409730685624180515
7364860 26 18057606464616908766
74978 22 18337957904190356830
7832392 63 17908425753689332281

>  <PUBCHEM_SHAPE_MULTIPOLES>
313.51
5.41
2.92
1.01
0.7
0.2
-0.2
3.22
0.26
-1.3
0
0.39
0.19
-0.91

>  <PUBCHEM_SHAPE_SELFOVERLAP>
660.978

>  <PUBCHEM_SHAPE_VOLUME>
181.1

>  <PUBCHEM_COORDINATE_TYPE>
2
5
10

$$$$
96735
 OpenBabel12092211543D

 27 28  0  0  1  0  0  0  0  0999 V2000
    2.8050    3.0955   -0.5916 Br  0  0  0  0  0  0  0  0  0  0  0  0
   -1.2005    0.3285   -4.5365 O   0  0  0  0  0  0  0  0  0  0  0  0
    0.3322    0.0329   -2.8827 O   0  0  0  0  0  0  0  0  0  0  0  0
    0.9914   -2.5586    0.3446 N   0  0  0  0  0  0  0  0  0  0  0  0
   -1.8133   -2.2718   -3.0277 N   0  0  0  0  0  0  0  0  0  0  0  0
   -0.5449   -1.2179   -0.5323 C   0  0  0  0  0  0  0  0  0  0  0  0
   -1.8190   -0.7222   -1.0920 C   0  0  0  0  0  0  0  0  0  0  0  0
    0.6466   -0.4639   -0.3410 C   0  0  0  0  0  0  0  0  0  0  0  0
   -1.9253   -0.8671   -2.6302 C   0  0  1  0  0  0  0  0  0  0  0  0
    1.5947   -1.3284    0.2104 C   0  0  0  0  0  0  0  0  0  0  0  0
   -0.3016   -2.5018   -0.1016 C   0  0  0  0  0  0  0  0  0  0  0  0
    1.0106    0.8754   -0.5845 C   0  0  0  0  0  0  0  0  0  0  0  0
    2.8938   -0.9191    0.5315 C   0  0  0  0  0  0  0  0  0  0  0  0
    2.3066    1.2990   -0.2683 C   0  0  0  0  0  0  0  0  0  0  0  0
   -0.7980   -0.1264   -3.3217 C   0  0  0  0  0  0  0  0  0  0  0  0
    3.2321    0.4139    0.2811 C   0  0  0  0  0  0  0  0  0  0  0  0
   -2.6546   -1.2508   -0.6134 H   0  0  0  0  0  0  0  0  0  0  0  0
   -1.9428    0.3359   -0.8236 H   0  0  0  0  0  0  0  0  0  0  0  0
   -2.8864   -0.4809   -2.9901 H   0  0  0  0  0  0  0  0  0  0  0  0
   -0.9312   -3.3803   -0.0712 H   0  0  0  0  0  0  0  0  0  0  0  0
    1.4392   -3.3838    0.7188 H   0  0  0  0  0  0  0  0  0  0  0  0
    0.2931    1.5661   -1.0187 H   0  0  0  0  0  0  0  0  0  0  0  0
    3.6149   -1.6075    0.9592 H   0  0  0  0  0  0  0  0  0  0  0  0
   -1.9760   -2.3574   -4.0306 H   0  0  0  0  0  0  0  0  0  0  0  0
   -2.5484   -2.8133   -2.5741 H   0  0  0  0  0  0  0  0  0  0  0  0
    4.2384    0.7476    0.5253 H   0  0  0  0  0  0  0  0  0  0  0  0
   -0.4825    0.8059   -5.0043 H   0  0  0  0  0  0  0  0  0  0  0  0
  1 14  1  0  0  0  0
  2 15  1  0  0  0  0
  2 27  1  0  0  0  0
  3 15  2  0  0  0  0
  4 10  1  0  0  0  0
  4 11  1  0  0  0  0
  4 21  1  0  0  0  0
  5  9  1  0  0  0  0
  5 24  1  0  0  0  0
  5 25  1  0  0  0  0
  6  7  1  0  0  0  0
  6  8  1  0  0  0  0
  6 11  2  0  0  0  0
  7  9  1  0  0  0  0
  7 17  1  0  0  0  0
  7 18  1  0  0  0  0
  8 10  2  0  0  0  0
  8 12  1  0  0  0  0
  9 15  1  0  0  0  0
  9 19  1  6  0  0  0
 10 13  1  0  0  0  0
 11 20  1  0  0  0  0
 12 14  2  0  0  0  0
 12 22  1  0  0  0  0
 13 16  2  0  0  0  0
 13 23  1  0  0  0  0
 14 16  1  0  0  0  0
 16 26  1  0  0  0  0
M  END
>  <PUBCHEM_COMPOUND_CID>
96735

>  <PUBCHEM_CONFORMER_RMSD>
0.6

>  <PUBCHEM_CONFORMER_DIVERSEORDER>
1
21
23
27
7
6
17
16
25
18
8
20
15
13
19
3
26
9
22
14
12
11
4
5
10
2
24

>  <PUBCHEM_MMFF94_PARTIAL_CHARGES>
23
1 -0.11
10 -0.15
11 -0.3
12 -0.15
13 -0.15
14 0.11
15 0.66
16 -0.15
2 -0.65
20 0.15
21 0.27
22 0.15
23 0.15
24 0.36
25 0.36
26 0.15
27 0.5
3 -0.57
4 0.03
5 -0.99
6 -0.18
7 0.18
9 0.33

>  <PUBCHEM_EFFECTIVE_ROTOR_COUNT>
3

>  <PUBCHEM_PHARMACOPHORE_FEATURES>
10
1 1 hydrophobe
1 2 acceptor
1 3 acceptor
1 4 cation
1 4 donor
1 5 cation
1 5 donor
3 2 3 15 anion
5 4 6 8 10 11 rings
6 8 10 12 13 14 16 rings

>  <PUBCHEM_HEAVY_ATOM_COUNT>
16

>  <PUBCHEM_ATOM_DEF_STEREO_COUNT>
0

>  <PUBCHEM_ATOM_UDEF_STEREO_COUNT>
1

>  <PUBCHEM_BOND_DEF_STEREO_COUNT>
0

>  <PUBCHEM_BOND_UDEF_STEREO_COUNT>
0

>  <PUBCHEM_ISOTOPIC_ATOM_COUNT>
0

>  <PUBCHEM_COMPONENT_COUNT>
1

>  <PUBCHEM_CACTVS_TAUTO_COUNT>
1

>  <PUBCHEM_CONFORMER_ID>
000179DF00000001

>  <PUBCHEM_MMFF94_ENERGY>
20.9886

>  <PUBCHEM_FEATURE_SELFOVERLAP>
50.892

>  <PUBCHEM_SHAPE_FINGERPRINT>
11471102 22 18113907017704346890
11640471 11 17845098359332862833
12403259 327 15647322104417206741
12491281 212 18263649618382218608
13140716 1 18189606327898569578
13618510 140 18409452526420472100
13764800 53 18048323532925062602
14787075 74 18124315167178597895
15490181 8 18412833503275010278
15775835 57 18201723929178119937
16945 1 18409454652334331470
192875 21 18339062822754813833
20510252 161 17617664697134019442
21524375 3 18272090525808676422
21665062 11 17834692495224876801
22094290 62 18410011057116016980
23419403 2 14064036600601634441
23557571 272 16485554645227557526
2748010 2 18192158298407538726
305870 269 18338518525844391474
4175511 71 18193564372126828886
474 4 18409165523688807169
526903 126 17838055166860279408
537710 114 18202278130768364809
63268167 104 18338793420873123914
6333272 397 18409730685624180515
7364860 26 18057606464616908766
74978 22 18337957904190356830
7832392 63 17908425753689332281

>  <PUBCHEM_SHAPE_MULTIPOLES>
313.51
5.41
2.92
1.01
0.7
0.2
-0.2
3.22
0.26
-1.3
0
0.39
0.19
-0.91

>  <PUBCHEM_SHAPE_SELFOVERLAP>
660.978

>  <PUBCHEM_SHAPE_VOLUME>
181.1

>  <PUBCHEM_COORDINATE_TYPE>
2
5
10

$$$$
96735
 OpenBabel12092211543D

 27 28  0  0  1  0  0  0  0  0999 V2000
    2.8050    3.0955   -0.5916 Br  0  0  0  0  0  0  0  0  0  0  0  0
   -3.5452   -1.0477    1.1933 O   0  0  0  0  0  0  0  0  0  0  0  0
   -2.2556    0.5627    2.1498 O   0  0  0  0  0  0  0  0  0  0  0  0
    0.9914   -2.5586    0.3446 N   0  0  0  0  0  0  0  0  0  0  0  0
   -1.5412    1.5862   -0.2304 N   0  0  0  0  0  0  0  0  0  0  0  0
   -0.5449   -1.2179   -0.5323 C   0  0  0  0  0  0  0  0  0  0  0  0
   -1.8190   -0.7222   -1.0920 C   0  0  0  0  0  0  0  0  0  0  0  0
    0.6466   -0.4639   -0.3410 C   0  0  0  0  0  0  0  0  0  0  0  0
   -2.4487    0.4383   -0.2827 C   0  0  1  0  0  0  0  0  0  0  0  0
    1.5947   -1.3284    0.2104 C   0  0  0  0  0  0  0  0  0  0  0  0
   -0.3016   -2.5018   -0.1016 C   0  0  0  0  0  0  0  0  0  0  0  0
    1.0106    0.8754   -0.5845 C   0  0  0  0  0  0  0  0  0  0  0  0
    2.8938   -0.9191    0.5315 C   0  0  0  0  0  0  0  0  0  0  0  0
    2.3066    1.2990   -0.2683 C   0  0  0  0  0  0  0  0  0  0  0  0
   -2.7061    0.0195    1.1511 C   0  0  0  0  0  0  0  0  0  0  0  0
    3.2321    0.4139    0.2811 C   0  0  0  0  0  0  0  0  0  0  0  0
   -1.6581   -0.4024   -2.1306 H   0  0  0  0  0  0  0  0  0  0  0  0
   -2.5369   -1.5523   -1.1435 H   0  0  0  0  0  0  0  0  0  0  0  0
   -3.3912    0.7625   -0.7398 H   0  0  0  0  0  0  0  0  0  0  0  0
   -0.9312   -3.3803   -0.0712 H   0  0  0  0  0  0  0  0  0  0  0  0
    1.4392   -3.3838    0.7188 H   0  0  0  0  0  0  0  0  0  0  0  0
    0.2931    1.5661   -1.0187 H   0  0  0  0  0  0  0  0  0  0  0  0
    3.6149   -1.6075    0.9592 H   0  0  0  0  0  0  0  0  0  0  0  0
   -2.0069    2.3697    0.2264 H   0  0  0  0  0  0  0  0  0  0  0  0
   -1.3294    1.8959   -1.1783 H   0  0  0  0  0  0  0  0  0  0  0  0
    4.2384    0.7476    0.5253 H   0  0  0  0  0  0  0  0  0  0  0  0
   -3.7304   -1.3309    2.1139 H   0  0  0  0  0  0  0  0  0  0  0  0
  1 14  1  0  0  0  0
  2 15  1  0  0  0  0
  2 27  1  0  0  0  0
  3 15  2  0  0  0  0
  4 10  1  0  0  0  0
  4 11  1  0  0  0  0
  4 21  1  0  0  0  0
  5  9  1  0  0  0  0
  5 24  1  0  0  0  0
  5 25  1  0  0  0  0
  6  7  1  0  0  0  0
  6  8  1  0  0  0  0
  6 11  2  0  0  0  0
  7  9  1  0  0  0  0
  7 17  1  0  0  0  0
  7 18  1  0  0  0  0
  8 10  2  0  0  0  0
  8 12  1  0  0  0  0
  9 15  1  0  0  0  0
  9 19  1  6  0  0  0
 10 13  1  0  0  0  0
 11 20  1  0  0  0  0
 12 14  2  0  0  0  0
 12 22  1  0  0  0  0
 13 16  2  0  0  0  0
 13 23  1  0  0  0  0
 14 16  1  0  0  0  0
 16 26  1  0  0  0  0
M  END
>  <PUBCHEM_COMPOUND_CID>
96735

>  <PUBCHEM_CONFORMER_RMSD>
0.6

>  <PUBCHEM_CONFORMER_DIVERSEORDER>
1
21
23
27
7
6
17
16
25
18
8
20
15
13
19
3
26
9
22
14
12
11
4
5
10
2
24

>  <PUBCHEM_MMFF94_PARTIAL_CHARGES>
23
1 -0.11
10 -0.15
11 -0.3
12 -0.15
13 -0.15
14 0.11
15 0.66
16 -0.15
2 -0.65
20 0.15
21 0.27
22 0.15
23 0.15
24 0.36
25 0.36
26 0.15
27 0.5
3 -0.57
4 0.03
5 -0.99
6 -0.18
7 0.18
9 0.33

>  <PUBCHEM_EFFECTIVE_ROTOR_COUNT>
3

>  <PUBCHEM_PHARMACOPHORE_FEATURES>
10
1 1 hydrophobe
1 2 acceptor
1 3 acceptor
1 4 cation
1 4 donor
1 5 cation
1 5 donor
3 2 3 15 anion
5 4 6 8 10 11 rings
6 8 10 12 13 14 16 rings

>  <PUBCHEM_HEAVY_ATOM_COUNT>
16

>  <PUBCHEM_ATOM_DEF_STEREO_COUNT>
0

>  <PUBCHEM_ATOM_UDEF_STEREO_COUNT>
1

>  <PUBCHEM_BOND_DEF_STEREO_COUNT>
0

>  <PUBCHEM_BOND_UDEF_STEREO_COUNT>
0

>  <PUBCHEM_ISOTOPIC_ATOM_COUNT>
0

>  <PUBCHEM_COMPONENT_COUNT>
1

>  <PUBCHEM_CACTVS_TAUTO_COUNT>
1

>  <PUBCHEM_CONFORMER_ID>
000179DF00000001

>  <PUBCHEM_MMFF94_ENERGY>
20.9886

>  <PUBCHEM_FEATURE_SELFOVERLAP>
50.892

>  <PUBCHEM_SHAPE_FINGERPRINT>
11471102 22 18113907017704346890
11640471 11 17845098359332862833
12403259 327 15647322104417206741
12491281 212 18263649618382218608
13140716 1 18189606327898569578
13618510 140 18409452526420472100
13764800 53 18048323532925062602
14787075 74 18124315167178597895
15490181 8 18412833503275010278
15775835 57 18201723929178119937
16945 1 18409454652334331470
192875 21 18339062822754813833
20510252 161 17617664697134019442
21524375 3 18272090525808676422
21665062 11 17834692495224876801
22094290 62 18410011057116016980
23419403 2 14064036600601634441
23557571 272 16485554645227557526
2748010 2 18192158298407538726
305870 269 18338518525844391474
4175511 71 18193564372126828886
474 4 18409165523688807169
526903 126 17838055166860279408
537710 114 18202278130768364809
63268167 104 18338793420873123914
6333272 397 18409730685624180515
7364860 26 18057606464616908766
74978 22 18337957904190356830
7832392 63 17908425753689332281

>  <PUBCHEM_SHAPE_MULTIPOLES>
313.51
5.41
2.92
1.01
0.7
0.2
-0.2
3.22
0.26
-1.3
0
0.39
0.19
-0.91

>  <PUBCHEM_SHAPE_SELFOVERLAP>
660.978

>  <PUBCHEM_SHAPE_VOLUME>
181.1

>  <PUBCHEM_COORDINATE_TYPE>
2
5
10

$$$$
96735
 OpenBabel12092211543D

 27 28  0  0  1  0  0  0  0  0999 V2000
    2.8050    3.0955   -0.5916 Br  0  0  0  0  0  0  0  0  0  0  0  0
    0.3880   -0.4649   -2.9280 O   0  0  0  0  0  0  0  0  0  0  0  0
   -1.2120   -0.0198   -4.4816 O   0  0  0  0  0  0  0  0  0  0  0  0
    0.9914   -2.5586    0.3446 N   0  0  0  0  0  0  0  0  0  0  0  0
   -2.9481    0.8621   -2.6292 N   0  0  0  0  0  0  0  0  0  0  0  0
   -0.5449   -1.2179   -0.5323 C   0  0  0  0  0  0  0  0  0  0  0  0
   -1.8190   -0.7222   -1.0920 C   0  0  0  0  0  0  0  0  0  0  0  0
    0.6466   -0.4639   -0.3410 C   0  0  0  0  0  0  0  0  0  0  0  0
   -1.6475    0.4244   -2.1187 C   0  0  1  0  0  0  0  0  0  0  0  0
    1.5947   -1.3284    0.2104 C   0  0  0  0  0  0  0  0  0  0  0  0
   -0.3016   -2.5018   -0.1016 C   0  0  0  0  0  0  0  0  0  0  0  0
    1.0106    0.8754   -0.5845 C   0  0  0  0  0  0  0  0  0  0  0  0
    2.8938   -0.9191    0.5315 C   0  0  0  0  0  0  0  0  0  0  0  0
    2.3066    1.2990   -0.2683 C   0  0  0  0  0  0  0  0  0  0  0  0
   -0.8419   -0.0389   -3.3162 C   0  0  0  0  0  0  0  0  0  0  0  0
    3.2321    0.4139    0.2811 C   0  0  0  0  0  0  0  0  0  0  0  0
   -2.3586   -1.5575   -1.5589 H   0  0  0  0  0  0  0  0  0  0  0  0
   -2.4614   -0.3738   -0.2717 H   0  0  0  0  0  0  0  0  0  0  0  0
   -1.1486    1.2854   -1.6581 H   0  0  0  0  0  0  0  0  0  0  0  0
   -0.9312   -3.3803   -0.0712 H   0  0  0  0  0  0  0  0  0  0  0  0
    1.4392   -3.3838    0.7188 H   0  0  0  0  0  0  0  0  0  0  0  0
    0.2931    1.5661   -1.0187 H   0  0  0  0  0  0  0  0  0  0  0  0
    3.6149   -1.6075    0.9592 H   0  0  0  0  0  0  0  0  0  0  0  0
   -2.8229    1.6746   -3.2323 H   0  0  0  0  0  0  0  0  0  0  0  0
   -3.5312    1.1727   -1.8529 H   0  0  0  0  0  0  0  0  0  0  0  0
    4.2384    0.7476    0.5253 H   0  0  0  0  0  0  0  0  0  0  0  0
    0.9288   -0.7632   -3.6901 H   0  0  0  0  0  0  0  0  0  0  0  0
  1 14  1  0  0  0  0
  2 15  1  0  0  0  0
  2 27  1  0  0  0  0
  3 15  2  0  0  0  0
  4 10  1  0  0  0  0
  4 11  1  0  0  0  0
  4 21  1  0  0  0  0
  5  9  1  0  0  0  0
  5 24  1  0  0  0  0
  5 25  1  0  0  0  0
  6  7  1  0  0  0  0
  6  8  1  0  0  0  0
  6 11  2  0  0  0  0
  7  9  1  0  0  0  0
  7 17  1  0  0  0  0
  7 18  1  0  0  0  0
  8 10  2  0  0  0  0
  8 12  1  0  0  0  0
  9 15  1  0  0  0  0
  9 19  1  1  0  0  0
 10 13  1  0  0  0  0
 11 20  1  0  0  0  0
 12 14  2  0  0  0  0
 12 22  1  0  0  0  0
 13 16  2  0  0  0  0
 13 23  1  0  0  0  0
 14 16  1  0  0  0  0
 16 26  1  0  0  0  0
M  END
>  <PUBCHEM_COMPOUND_CID>
96735

>  <PUBCHEM_CONFORMER_RMSD>
0.6

>  <PUBCHEM_CONFORMER_DIVERSEORDER>
1
21
23
27
7
6
17
16
25
18
8
20
15
13
19
3
26
9
22
14
12
11
4
5
10
2
24

>  <PUBCHEM_MMFF94_PARTIAL_CHARGES>
23
1 -0.11
10 -0.15
11 -0.3
12 -0.15
13 -0.15
14 0.11
15 0.66
16 -0.15
2 -0.65
20 0.15
21 0.27
22 0.15
23 0.15
24 0.36
25 0.36
26 0.15
27 0.5
3 -0.57
4 0.03
5 -0.99
6 -0.18
7 0.18
9 0.33

>  <PUBCHEM_EFFECTIVE_ROTOR_COUNT>
3

>  <PUBCHEM_PHARMACOPHORE_FEATURES>
10
1 1 hydrophobe
1 2 acceptor
1 3 acceptor
1 4 cation
1 4 donor
1 5 cation
1 5 donor
3 2 3 15 anion
5 4 6 8 10 11 rings
6 8 10 12 13 14 16 rings

>  <PUBCHEM_HEAVY_ATOM_COUNT>
16

>  <PUBCHEM_ATOM_DEF_STEREO_COUNT>
0

>  <PUBCHEM_ATOM_UDEF_STEREO_COUNT>
1

>  <PUBCHEM_BOND_DEF_STEREO_COUNT>
0

>  <PUBCHEM_BOND_UDEF_STEREO_COUNT>
0

>  <PUBCHEM_ISOTOPIC_ATOM_COUNT>
0

>  <PUBCHEM_COMPONENT_COUNT>
1

>  <PUBCHEM_CACTVS_TAUTO_COUNT>
1

>  <PUBCHEM_CONFORMER_ID>
000179DF00000001

>  <PUBCHEM_MMFF94_ENERGY>
20.9886

>  <PUBCHEM_FEATURE_SELFOVERLAP>
50.892

>  <PUBCHEM_SHAPE_FINGERPRINT>
11471102 22 18113907017704346890
11640471 11 17845098359332862833
12403259 327 15647322104417206741
12491281 212 18263649618382218608
13140716 1 18189606327898569578
13618510 140 18409452526420472100
13764800 53 18048323532925062602
14787075 74 18124315167178597895
15490181 8 18412833503275010278
15775835 57 18201723929178119937
16945 1 18409454652334331470
192875 21 18339062822754813833
20510252 161 17617664697134019442
21524375 3 18272090525808676422
21665062 11 17834692495224876801
22094290 62 18410011057116016980
23419403 2 14064036600601634441
23557571 272 16485554645227557526
2748010 2 18192158298407538726
305870 269 18338518525844391474
4175511 71 18193564372126828886
474 4 18409165523688807169
526903 126 17838055166860279408
537710 114 18202278130768364809
63268167 104 18338793420873123914
6333272 397 18409730685624180515
7364860 26 18057606464616908766
74978 22 18337957904190356830
7832392 63 17908425753689332281

>  <PUBCHEM_SHAPE_MULTIPOLES>
313.51
5.41
2.92
1.01
0.7
0.2
-0.2
3.22
0.26
-1.3
0
0.39
0.19
-0.91

>  <PUBCHEM_SHAPE_SELFOVERLAP>
660.978

>  <PUBCHEM_SHAPE_VOLUME>
181.1

>  <PUBCHEM_COORDINATE_TYPE>
2
5
10

$$$$
96735
 OpenBabel12092211543D

 27 28  0  0  1  0  0  0  0  0999 V2000
    2.8050    3.0955   -0.5916 Br  0  0  0  0  0  0  0  0  0  0  0  0
   -3.5463   -3.5501   -2.6317 O   0  0  0  0  0  0  0  0  0  0  0  0
   -1.3373   -3.3915   -2.1152 O   0  0  0  0  0  0  0  0  0  0  0  0
    0.9914   -2.5586    0.3446 N   0  0  0  0  0  0  0  0  0  0  0  0
   -3.2355   -2.3238    0.1636 N   0  0  0  0  0  0  0  0  0  0  0  0
   -0.5449   -1.2179   -0.5323 C   0  0  0  0  0  0  0  0  0  0  0  0
   -1.8190   -0.7222   -1.0920 C   0  0  0  0  0  0  0  0  0  0  0  0
    0.6466   -0.4639   -0.3410 C   0  0  0  0  0  0  0  0  0  0  0  0
   -2.9298   -1.7985   -1.1685 C   0  0  1  0  0  0  0  0  0  0  0  0
    1.5947   -1.3284    0.2104 C   0  0  0  0  0  0  0  0  0  0  0  0
   -0.3016   -2.5018   -0.1016 C   0  0  0  0  0  0  0  0  0  0  0  0
    1.0106    0.8754   -0.5845 C   0  0  0  0  0  0  0  0  0  0  0  0
    2.8938   -0.9191    0.5315 C   0  0  0  0  0  0  0  0  0  0  0  0
    2.3066    1.2990   -0.2683 C   0  0  0  0  0  0  0  0  0  0  0  0
   -2.4830   -2.9770   -2.0106 C   0  0  0  0  0  0  0  0  0  0  0  0
    3.2321    0.4139    0.2811 C   0  0  0  0  0  0  0  0  0  0  0  0
   -2.1709    0.1287   -0.4928 H   0  0  0  0  0  0  0  0  0  0  0  0
   -1.6387   -0.3230   -2.0995 H   0  0  0  0  0  0  0  0  0  0  0  0
   -3.8486   -1.3774   -1.5939 H   0  0  0  0  0  0  0  0  0  0  0  0
   -0.9312   -3.3803   -0.0712 H   0  0  0  0  0  0  0  0  0  0  0  0
    1.4392   -3.3838    0.7188 H   0  0  0  0  0  0  0  0  0  0  0  0
    0.2931    1.5661   -1.0187 H   0  0  0  0  0  0  0  0  0  0  0  0
    3.6149   -1.6075    0.9592 H   0  0  0  0  0  0  0  0  0  0  0  0
   -4.0284   -2.9622    0.1058 H   0  0  0  0  0  0  0  0  0  0  0  0
   -3.5303   -1.5601    0.7710 H   0  0  0  0  0  0  0  0  0  0  0  0
    4.2384    0.7476    0.5253 H   0  0  0  0  0  0  0  0  0  0  0  0
   -3.2793   -4.3201   -3.1775 H   0  0  0  0  0  0  0  0  0  0  0  0
  1 14  1  0  0  0  0
  2 15  1  0  0  0  0
  2 27  1  0  0  0  0
  3 15  2  0  0  0  0
  4 10  1  0  0  0  0
  4 11  1  0  0  0  0
  4 21  1  0  0  0  0
  5  9  1  0  0  0  0
  5 24  1  0  0  0  0
  5 25  1  0  0  0  0
  6  7  1  0  0  0  0
  6  8  1  0  0  0  0
  6 11  2  0  0  0  0
  7  9  1  0  0  0  0
  7 17  1  0  0  0  0
  7 18  1  0  0  0  0
  8 10  2  0  0  0  0
  8 12  1  0  0  0  0
  9 15  1  0  0  0  0
  9 19  1  6  0  0  0
 10 13  1  0  0  0  0
 11 20  1  0  0  0  0
 12 14  2  0  0  0  0
 12 22  1  0  0  0  0
 13 16  2  0  0  0  0
 13 23  1  0  0  0  0
 14 16  1  0  0  0  0
 16 26  1  0  0  0  0
M  END
>  <PUBCHEM_COMPOUND_CID>
96735

>  <PUBCHEM_CONFORMER_RMSD>
0.6

>  <PUBCHEM_CONFORMER_DIVERSEORDER>
1
21
23
27
7
6
17
16
25
18
8
20
15
13
19
3
26
9
22
14
12
11
4
5
10
2
24

>  <PUBCHEM_MMFF94_PARTIAL_CHARGES>
23
1 -0.11
10 -0.15
11 -0.3
12 -0.15
13 -0.15
14 0.11
15 0.66
16 -0.15
2 -0.65
20 0.15
21 0.27
22 0.15
23 0.15
24 0.36
25 0.36
26 0.15
27 0.5
3 -0.57
4 0.03
5 -0.99
6 -0.18
7 0.18
9 0.33

>  <PUBCHEM_EFFECTIVE_ROTOR_COUNT>
3

>  <PUBCHEM_PHARMACOPHORE_FEATURES>
10
1 1 hydrophobe
1 2 acceptor
1 3 acceptor
1 4 cation
1 4 donor
1 5 cation
1 5 donor
3 2 3 15 anion
5 4 6 8 10 11 rings
6 8 10 12 13 14 16 rings

>  <PUBCHEM_HEAVY_ATOM_COUNT>
16

>  <PUBCHEM_ATOM_DEF_STEREO_COUNT>
0

>  <PUBCHEM_ATOM_UDEF_STEREO_COUNT>
1

>  <PUBCHEM_BOND_DEF_STEREO_COUNT>
0

>  <PUBCHEM_BOND_UDEF_STEREO_COUNT>
0

>  <PUBCHEM_ISOTOPIC_ATOM_COUNT>
0

>  <PUBCHEM_COMPONENT_COUNT>
1

>  <PUBCHEM_CACTVS_TAUTO_COUNT>
1

>  <PUBCHEM_CONFORMER_ID>
000179DF00000001

>  <PUBCHEM_MMFF94_ENERGY>
20.9886

>  <PUBCHEM_FEATURE_SELFOVERLAP>
50.892

>  <PUBCHEM_SHAPE_FINGERPRINT>
11471102 22 18113907017704346890
11640471 11 17845098359332862833
12403259 327 15647322104417206741
12491281 212 18263649618382218608
13140716 1 18189606327898569578
13618510 140 18409452526420472100
13764800 53 18048323532925062602
14787075 74 18124315167178597895
15490181 8 18412833503275010278
15775835 57 18201723929178119937
16945 1 18409454652334331470
192875 21 18339062822754813833
20510252 161 17617664697134019442
21524375 3 18272090525808676422
21665062 11 17834692495224876801
22094290 62 18410011057116016980
23419403 2 14064036600601634441
23557571 272 16485554645227557526
2748010 2 18192158298407538726
305870 269 18338518525844391474
4175511 71 18193564372126828886
474 4 18409165523688807169
526903 126 17838055166860279408
537710 114 18202278130768364809
63268167 104 18338793420873123914
6333272 397 18409730685624180515
7364860 26 18057606464616908766
74978 22 18337957904190356830
7832392 63 17908425753689332281

>  <PUBCHEM_SHAPE_MULTIPOLES>
313.51
5.41
2.92
1.01
0.7
0.2
-0.2
3.22
0.26
-1.3
0
0.39
0.19
-0.91

>  <PUBCHEM_SHAPE_SELFOVERLAP>
660.978

>  <PUBCHEM_SHAPE_VOLUME>
181.1

>  <PUBCHEM_COORDINATE_TYPE>
2
5
10

$$$$
96735
 OpenBabel12092211543D

 27 28  0  0  1  0  0  0  0  0999 V2000
    2.8050    3.0955   -0.5916 Br  0  0  0  0  0  0  0  0  0  0  0  0
   -4.4588   -2.7233   -0.0845 O   0  0  0  0  0  0  0  0  0  0  0  0
   -2.4297   -2.9833    0.9088 O   0  0  0  0  0  0  0  0  0  0  0  0
    0.9914   -2.5586    0.3446 N   0  0  0  0  0  0  0  0  0  0  0  0
   -2.7778   -0.0854    1.1042 N   0  0  0  0  0  0  0  0  0  0  0  0
   -0.5449   -1.2179   -0.5323 C   0  0  0  0  0  0  0  0  0  0  0  0
   -1.8190   -0.7222   -1.0920 C   0  0  0  0  0  0  0  0  0  0  0  0
    0.6466   -0.4639   -0.3410 C   0  0  0  0  0  0  0  0  0  0  0  0
   -3.0197   -0.8480   -0.1221 C   0  0  1  0  0  0  0  0  0  0  0  0
    1.5947   -1.3284    0.2104 C   0  0  0  0  0  0  0  0  0  0  0  0
   -0.3016   -2.5018   -0.1016 C   0  0  0  0  0  0  0  0  0  0  0  0
    1.0106    0.8754   -0.5845 C   0  0  0  0  0  0  0  0  0  0  0  0
    2.8938   -0.9191    0.5315 C   0  0  0  0  0  0  0  0  0  0  0  0
    2.3066    1.2990   -0.2683 C   0  0  0  0  0  0  0  0  0  0  0  0
   -3.2285   -2.2903    0.2947 C   0  0  0  0  0  0  0  0  0  0  0  0
    3.2321    0.4139    0.2811 C   0  0  0  0  0  0  0  0  0  0  0  0
   -1.6977    0.3270   -1.3943 H   0  0  0  0  0  0  0  0  0  0  0  0
   -2.0459   -1.2739   -2.0146 H   0  0  0  0  0  0  0  0  0  0  0  0
   -3.9367   -0.4701   -0.5898 H   0  0  0  0  0  0  0  0  0  0  0  0
   -0.9312   -3.3803   -0.0712 H   0  0  0  0  0  0  0  0  0  0  0  0
    1.4392   -3.3838    0.7188 H   0  0  0  0  0  0  0  0  0  0  0  0
    0.2931    1.5661   -1.0187 H   0  0  0  0  0  0  0  0  0  0  0  0
    3.6149   -1.6075    0.9592 H   0  0  0  0  0  0  0  0  0  0  0  0
   -3.6125   -0.1052    1.6894 H   0  0  0  0  0  0  0  0  0  0  0  0
   -2.6190    0.8939    0.8700 H   0  0  0  0  0  0  0  0  0  0  0  0
    4.2384    0.7476    0.5253 H   0  0  0  0  0  0  0  0  0  0  0  0
   -4.6170   -3.6539    0.1820 H   0  0  0  0  0  0  0  0  0  0  0  0
  1 14  1  0  0  0  0
  2 15  1  0  0  0  0
  2 27  1  0  0  0  0
  3 15  2  0  0  0  0
  4 10  1  0  0  0  0
  4 11  1  0  0  0  0
  4 21  1  0  0  0  0
  5  9  1  0  0  0  0
  5 24  1  0  0  0  0
  5 25  1  0  0  0  0
  6  7  1  0  0  0  0
  6  8  1  0  0  0  0
  6 11  2  0  0  0  0
  7  9  1  0  0  0  0
  7 17  1  0  0  0  0
  7 18  1  0  0  0  0
  8 10  2  0  0  0  0
  8 12  1  0  0  0  0
  9 15  1  0  0  0  0
  9 19  1  6  0  0  0
 10 13  1  0  0  0  0
 11 20  1  0  0  0  0
 12 14  2  0  0  0  0
 12 22  1  0  0  0  0
 13 16  2  0  0  0  0
 13 23  1  0  0  0  0
 14 16  1  0  0  0  0
 16 26  1  0  0  0  0
M  END
>  <PUBCHEM_COMPOUND_CID>
96735

>  <PUBCHEM_CONFORMER_RMSD>
0.6

>  <PUBCHEM_CONFORMER_DIVERSEORDER>
1
21
23
27
7
6
17
16
25
18
8
20
15
13
19
3
26
9
22
14
12
11
4
5
10
2
24

>  <PUBCHEM_MMFF94_PARTIAL_CHARGES>
23
1 -0.11
10 -0.15
11 -0.3
12 -0.15
13 -0.15
14 0.11
15 0.66
16 -0.15
2 -0.65
20 0.15
21 0.27
22 0.15
23 0.15
24 0.36
25 0.36
26 0.15
27 0.5
3 -0.57
4 0.03
5 -0.99
6 -0.18
7 0.18
9 0.33

>  <PUBCHEM_EFFECTIVE_ROTOR_COUNT>
3

>  <PUBCHEM_PHARMACOPHORE_FEATURES>
10
1 1 hydrophobe
1 2 acceptor
1 3 acceptor
1 4 cation
1 4 donor
1 5 cation
1 5 donor
3 2 3 15 anion
5 4 6 8 10 11 rings
6 8 10 12 13 14 16 rings

>  <PUBCHEM_HEAVY_ATOM_COUNT>
16

>  <PUBCHEM_ATOM_DEF_STEREO_COUNT>
0

>  <PUBCHEM_ATOM_UDEF_STEREO_COUNT>
1

>  <PUBCHEM_BOND_DEF_STEREO_COUNT>
0

>  <PUBCHEM_BOND_UDEF_STEREO_COUNT>
0

>  <PUBCHEM_ISOTOPIC_ATOM_COUNT>
0

>  <PUBCHEM_COMPONENT_COUNT>
1

>  <PUBCHEM_CACTVS_TAUTO_COUNT>
1

>  <PUBCHEM_CONFORMER_ID>
000179DF00000001

>  <PUBCHEM_MMFF94_ENERGY>
20.9886

>  <PUBCHEM_FEATURE_SELFOVERLAP>
50.892

>  <PUBCHEM_SHAPE_FINGERPRINT>
11471102 22 18113907017704346890
11640471 11 17845098359332862833
12403259 327 15647322104417206741
12491281 212 18263649618382218608
13140716 1 18189606327898569578
13618510 140 18409452526420472100
13764800 53 18048323532925062602
14787075 74 18124315167178597895
15490181 8 18412833503275010278
15775835 57 18201723929178119937
16945 1 18409454652334331470
192875 21 18339062822754813833
20510252 161 17617664697134019442
21524375 3 18272090525808676422
21665062 11 17834692495224876801
22094290 62 18410011057116016980
23419403 2 14064036600601634441
23557571 272 16485554645227557526
2748010 2 18192158298407538726
305870 269 18338518525844391474
4175511 71 18193564372126828886
474 4 18409165523688807169
526903 126 17838055166860279408
537710 114 18202278130768364809
63268167 104 18338793420873123914
6333272 397 18409730685624180515
7364860 26 18057606464616908766
74978 22 18337957904190356830
7832392 63 17908425753689332281

>  <PUBCHEM_SHAPE_MULTIPOLES>
313.51
5.41
2.92
1.01
0.7
0.2
-0.2
3.22
0.26
-1.3
0
0.39
0.19
-0.91

>  <PUBCHEM_SHAPE_SELFOVERLAP>
660.978

>  <PUBCHEM_SHAPE_VOLUME>
181.1

>  <PUBCHEM_COORDINATE_TYPE>
2
5
10

$$$$
96735
 OpenBabel12092211543D

 27 28  0  0  1  0  0  0  0  0999 V2000
    2.8050    3.0955   -0.5916 Br  0  0  0  0  0  0  0  0  0  0  0  0
   -3.7850    0.6743    1.6531 O   0  0  0  0  0  0  0  0  0  0  0  0
   -2.0383   -0.7746    1.7983 O   0  0  0  0  0  0  0  0  0  0  0  0
    0.9914   -2.5586    0.3446 N   0  0  0  0  0  0  0  0  0  0  0  0
   -1.5412    1.5862   -0.2304 N   0  0  0  0  0  0  0  0  0  0  0  0
   -0.5449   -1.2179   -0.5323 C   0  0  0  0  0  0  0  0  0  0  0  0
   -1.8190   -0.7222   -1.0920 C   0  0  0  0  0  0  0  0  0  0  0  0
    0.6466   -0.4639   -0.3410 C   0  0  0  0  0  0  0  0  0  0  0  0
   -2.4487    0.4383   -0.2827 C   0  0  1  0  0  0  0  0  0  0  0  0
    1.5947   -1.3284    0.2104 C   0  0  0  0  0  0  0  0  0  0  0  0
   -0.3016   -2.5018   -0.1016 C   0  0  0  0  0  0  0  0  0  0  0  0
    1.0106    0.8754   -0.5845 C   0  0  0  0  0  0  0  0  0  0  0  0
    2.8938   -0.9191    0.5315 C   0  0  0  0  0  0  0  0  0  0  0  0
    2.3066    1.2990   -0.2683 C   0  0  0  0  0  0  0  0  0  0  0  0
   -2.7061    0.0195    1.1511 C   0  0  0  0  0  0  0  0  0  0  0  0
    3.2321    0.4139    0.2811 C   0  0  0  0  0  0  0  0  0  0  0  0
   -1.6581   -0.4024   -2.1306 H   0  0  0  0  0  0  0  0  0  0  0  0
   -2.5369   -1.5523   -1.1435 H   0  0  0  0  0  0  0  0  0  0  0  0
   -3.3912    0.7625   -0.7398 H   0  0  0  0  0  0  0  0  0  0  0  0
   -0.9312   -3.3803   -0.0712 H   0  0  0  0  0  0  0  0  0  0  0  0
    1.4392   -3.3838    0.7188 H   0  0  0  0  0  0  0  0  0  0  0  0
    0.2931    1.5661   -1.0187 H   0  0  0  0  0  0  0  0  0  0  0  0
    3.6149   -1.6075    0.9592 H   0  0  0  0  0  0  0  0  0  0  0  0
   -2.0069    2.3697    0.2264 H   0  0  0  0  0  0  0  0  0  0  0  0
   -1.3294    1.8959   -1.1783 H   0  0  0  0  0  0  0  0  0  0  0  0
    4.2384    0.7476    0.5253 H   0  0  0  0  0  0  0  0  0  0  0  0
   -3.9651    0.4222    2.5838 H   0  0  0  0  0  0  0  0  0  0  0  0
  1 14  1  0  0  0  0
  2 15  1  0  0  0  0
  2 27  1  0  0  0  0
  3 15  2  0  0  0  0
  4 10  1  0  0  0  0
  4 11  1  0  0  0  0
  4 21  1  0  0  0  0
  5  9  1  0  0  0  0
  5 24  1  0  0  0  0
  5 25  1  0  0  0  0
  6  7  1  0  0  0  0
  6  8  1  0  0  0  0
  6 11  2  0  0  0  0
  7  9  1  0  0  0  0
  7 17  1  0  0  0  0
  7 18  1  0  0  0  0
  8 10  2  0  0  0  0
  8 12  1  0  0  0  0
  9 15  1  0  0  0  0
  9 19  1  6  0  0  0
 10 13  1  0  0  0  0
 11 20  1  0  0  0  0
 12 14  2  0  0  0  0
 12 22  1  0  0  0  0
 13 16  2  0  0  0  0
 13 23  1  0  0  0  0
 14 16  1  0  0  0  0
 16 26  1  0  0  0  0
M  END
>  <PUBCHEM_COMPOUND_CID>
96735

>  <PUBCHEM_CONFORMER_RMSD>
0.6

>  <PUBCHEM_CONFORMER_DIVERSEORDER>
1
21
23
27
7
6
17
16
25
18
8
20
15
13
19
3
26
9
22
14
12
11
4
5
10
2
24

>  <PUBCHEM_MMFF94_PARTIAL_CHARGES>
23
1 -0.11
10 -0.15
11 -0.3
12 -0.15
13 -0.15
14 0.11
15 0.66
16 -0.15
2 -0.65
20 0.15
21 0.27
22 0.15
23 0.15
24 0.36
25 0.36
26 0.15
27 0.5
3 -0.57
4 0.03
5 -0.99
6 -0.18
7 0.18
9 0.33

>  <PUBCHEM_EFFECTIVE_ROTOR_COUNT>
3

>  <PUBCHEM_PHARMACOPHORE_FEATURES>
10
1 1 hydrophobe
1 2 acceptor
1 3 acceptor
1 4 cation
1 4 donor
1 5 cation
1 5 donor
3 2 3 15 anion
5 4 6 8 10 11 rings
6 8 10 12 13 14 16 rings

>  <PUBCHEM_HEAVY_ATOM_COUNT>
16

>  <PUBCHEM_ATOM_DEF_STEREO_COUNT>
0

>  <PUBCHEM_ATOM_UDEF_STEREO_COUNT>
1

>  <PUBCHEM_BOND_DEF_STEREO_COUNT>
0

>  <PUBCHEM_BOND_UDEF_STEREO_COUNT>
0

>  <PUBCHEM_ISOTOPIC_ATOM_COUNT>
0

>  <PUBCHEM_COMPONENT_COUNT>
1

>  <PUBCHEM_CACTVS_TAUTO_COUNT>
1

>  <PUBCHEM_CONFORMER_ID>
000179DF00000001

>  <PUBCHEM_MMFF94_ENERGY>
20.9886

>  <PUBCHEM_FEATURE_SELFOVERLAP>
50.892

>  <PUBCHEM_SHAPE_FINGERPRINT>
11471102 22 18113907017704346890
11640471 11 17845098359332862833
12403259 327 15647322104417206741
12491281 212 18263649618382218608
13140716 1 18189606327898569578
13618510 140 18409452526420472100
13764800 53 18048323532925062602
14787075 74 18124315167178597895
15490181 8 18412833503275010278
15775835 57 18201723929178119937
16945 1 18409454652334331470
192875 21 18339062822754813833
20510252 161 17617664697134019442
21524375 3 18272090525808676422
21665062 11 17834692495224876801
22094290 62 18410011057116016980
23419403 2 14064036600601634441
23557571 272 16485554645227557526
2748010 2 18192158298407538726
305870 269 18338518525844391474
4175511 71 18193564372126828886
474 4 18409165523688807169
526903 126 17838055166860279408
537710 114 18202278130768364809
63268167 104 18338793420873123914
6333272 397 18409730685624180515
7364860 26 18057606464616908766
74978 22 18337957904190356830
7832392 63 17908425753689332281

>  <PUBCHEM_SHAPE_MULTIPOLES>
313.51
5.41
2.92
1.01
0.7
0.2
-0.2
3.22
0.26
-1.3
0
0.39
0.19
-0.91

>  <PUBCHEM_SHAPE_SELFOVERLAP>
660.978

>  <PUBCHEM_SHAPE_VOLUME>
181.1

>  <PUBCHEM_COORDINATE_TYPE>
2
5
10

$$$$
96735
 OpenBabel12092211543D

 27 28  0  0  1  0  0  0  0  0999 V2000
    2.8050    3.0955   -0.5916 Br  0  0  0  0  0  0  0  0  0  0  0  0
   -2.8465    1.3509   -3.9280 O   0  0  0  0  0  0  0  0  0  0  0  0
   -4.1337   -0.0347   -2.6651 O   0  0  0  0  0  0  0  0  0  0  0  0
    0.9914   -2.5586    0.3446 N   0  0  0  0  0  0  0  0  0  0  0  0
   -0.7562    0.9435   -2.5900 N   0  0  0  0  0  0  0  0  0  0  0  0
   -0.5449   -1.2179   -0.5323 C   0  0  0  0  0  0  0  0  0  0  0  0
   -1.8190   -0.7222   -1.0920 C   0  0  0  0  0  0  0  0  0  0  0  0
    0.6466   -0.4639   -0.3410 C   0  0  0  0  0  0  0  0  0  0  0  0
   -1.6979   -0.1764   -2.5362 C   0  0  1  0  0  0  0  0  0  0  0  0
    1.5947   -1.3284    0.2104 C   0  0  0  0  0  0  0  0  0  0  0  0
   -0.3016   -2.5018   -0.1016 C   0  0  0  0  0  0  0  0  0  0  0  0
    1.0106    0.8754   -0.5845 C   0  0  0  0  0  0  0  0  0  0  0  0
    2.8938   -0.9191    0.5315 C   0  0  0  0  0  0  0  0  0  0  0  0
    2.3066    1.2990   -0.2683 C   0  0  0  0  0  0  0  0  0  0  0  0
   -3.0313    0.3504   -3.0281 C   0  0  0  0  0  0  0  0  0  0  0  0
    3.2321    0.4139    0.2811 C   0  0  0  0  0  0  0  0  0  0  0  0
   -2.5647   -1.5284   -1.0640 H   0  0  0  0  0  0  0  0  0  0  0  0
   -2.2133    0.0712   -0.4423 H   0  0  0  0  0  0  0  0  0  0  0  0
   -1.3443   -0.9592   -3.2178 H   0  0  0  0  0  0  0  0  0  0  0  0
   -0.9312   -3.3803   -0.0712 H   0  0  0  0  0  0  0  0  0  0  0  0
    1.4392   -3.3838    0.7188 H   0  0  0  0  0  0  0  0  0  0  0  0
    0.2931    1.5661   -1.0187 H   0  0  0  0  0  0  0  0  0  0  0  0
    3.6149   -1.6075    0.9592 H   0  0  0  0  0  0  0  0  0  0  0  0
   -0.6205    1.2299   -3.5591 H   0  0  0  0  0  0  0  0  0  0  0  0
    0.1564    0.6370   -2.2547 H   0  0  0  0  0  0  0  0  0  0  0  0
    4.2384    0.7476    0.5253 H   0  0  0  0  0  0  0  0  0  0  0  0
   -3.6986    1.7108   -4.2544 H   0  0  0  0  0  0  0  0  0  0  0  0
  1 14  1  0  0  0  0
  2 15  1  0  0  0  0
  2 27  1  0  0  0  0
  3 15  2  0  0  0  0
  4 10  1  0  0  0  0
  4 11  1  0  0  0  0
  4 21  1  0  0  0  0
  5  9  1  0  0  0  0
  5 24  1  0  0  0  0
  5 25  1  0  0  0  0
  6  7  1  0  0  0  0
  6  8  1  0  0  0  0
  6 11  2  0  0  0  0
  7  9  1  0  0  0  0
  7 17  1  0  0  0  0
  7 18  1  0  0  0  0
  8 10  2  0  0  0  0
  8 12  1  0  0  0  0
  9 15  1  0  0  0  0
  9 19  1  6  0  0  0
 10 13  1  0  0  0  0
 11 20  1  0  0  0  0
 12 14  2  0  0  0  0
 12 22  1  0  0  0  0
 13 16  2  0  0  0  0
 13 23  1  0  0  0  0
 14 16  1  0  0  0  0
 16 26  1  0  0  0  0
M  END
>  <PUBCHEM_COMPOUND_CID>
96735

>  <PUBCHEM_CONFORMER_RMSD>
0.6

>  <PUBCHEM_CONFORMER_DIVERSEORDER>
1
21
23
27
7
6
17
16
25
18
8
20
15
13
19
3
26
9
22
14
12
11
4
5
10
2
24

>  <PUBCHEM_MMFF94_PARTIAL_CHARGES>
23
1 -0.11
10 -0.15
11 -0.3
12 -0.15
13 -0.15
14 0.11
15 0.66
16 -0.15
2 -0.65
20 0.15
21 0.27
22 0.15
23 0.15
24 0.36
25 0.36
26 0.15
27 0.5
3 -0.57
4 0.03
5 -0.99
6 -0.18
7 0.18
9 0.33

>  <PUBCHEM_EFFECTIVE_ROTOR_COUNT>
3

>  <PUBCHEM_PHARMACOPHORE_FEATURES>
10
1 1 hydrophobe
1 2 acceptor
1 3 acceptor
1 4 cation
1 4 donor
1 5 cation
1 5 donor
3 2 3 15 anion
5 4 6 8 10 11 rings
6 8 10 12 13 14 16 rings

>  <PUBCHEM_HEAVY_ATOM_COUNT>
16

>  <PUBCHEM_ATOM_DEF_STEREO_COUNT>
0

>  <PUBCHEM_ATOM_UDEF_STEREO_COUNT>
1

>  <PUBCHEM_BOND_DEF_STEREO_COUNT>
0

>  <PUBCHEM_BOND_UDEF_STEREO_COUNT>
0

>  <PUBCHEM_ISOTOPIC_ATOM_COUNT>
0

>  <PUBCHEM_COMPONENT_COUNT>
1

>  <PUBCHEM_CACTVS_TAUTO_COUNT>
1

>  <PUBCHEM_CONFORMER_ID>
000179DF00000001

>  <PUBCHEM_MMFF94_ENERGY>
20.9886

>  <PUBCHEM_FEATURE_SELFOVERLAP>
50.892

>  <PUBCHEM_SHAPE_FINGERPRINT>
11471102 22 18113907017704346890
11640471 11 17845098359332862833
12403259 327 15647322104417206741
12491281 212 18263649618382218608
13140716 1 18189606327898569578
13618510 140 18409452526420472100
13764800 53 18048323532925062602
14787075 74 18124315167178597895
15490181 8 18412833503275010278
15775835 57 18201723929178119937
16945 1 18409454652334331470
192875 21 18339062822754813833
20510252 161 17617664697134019442
21524375 3 18272090525808676422
21665062 11 17834692495224876801
22094290 62 18410011057116016980
23419403 2 14064036600601634441
23557571 272 16485554645227557526
2748010 2 18192158298407538726
305870 269 18338518525844391474
4175511 71 18193564372126828886
474 4 18409165523688807169
526903 126 17838055166860279408
537710 114 18202278130768364809
63268167 104 18338793420873123914
6333272 397 18409730685624180515
7364860 26 18057606464616908766
74978 22 18337957904190356830
7832392 63 17908425753689332281

>  <PUBCHEM_SHAPE_MULTIPOLES>
313.51
5.41
2.92
1.01
0.7
0.2
-0.2
3.22
0.26
-1.3
0
0.39
0.19
-0.91

>  <PUBCHEM_SHAPE_SELFOVERLAP>
660.978

>  <PUBCHEM_SHAPE_VOLUME>
181.1

>  <PUBCHEM_COORDINATE_TYPE>
2
5
10

$$$$
96735
 OpenBabel12092211543D

 27 28  0  0  1  0  0  0  0  0999 V2000
    2.8050    3.0955   -0.5916 Br  0  0  0  0  0  0  0  0  0  0  0  0
   -2.4916   -3.3731    0.5397 O   0  0  0  0  0  0  0  0  0  0  0  0
   -4.1548   -1.8759    0.9442 O   0  0  0  0  0  0  0  0  0  0  0  0
    0.9914   -2.5586    0.3446 N   0  0  0  0  0  0  0  0  0  0  0  0
   -4.1591   -1.2360   -1.7306 N   0  0  0  0  0  0  0  0  0  0  0  0
   -0.5449   -1.2179   -0.5323 C   0  0  0  0  0  0  0  0  0  0  0  0
   -1.8190   -0.7222   -1.0920 C   0  0  0  0  0  0  0  0  0  0  0  0
    0.6466   -0.4639   -0.3410 C   0  0  0  0  0  0  0  0  0  0  0  0
   -2.9298   -1.7985   -1.1685 C   0  0  1  0  0  0  0  0  0  0  0  0
    1.5947   -1.3284    0.2104 C   0  0  0  0  0  0  0  0  0  0  0  0
   -0.3016   -2.5018   -0.1016 C   0  0  0  0  0  0  0  0  0  0  0  0
    1.0106    0.8754   -0.5845 C   0  0  0  0  0  0  0  0  0  0  0  0
    2.8938   -0.9191    0.5315 C   0  0  0  0  0  0  0  0  0  0  0  0
    2.3066    1.2990   -0.2683 C   0  0  0  0  0  0  0  0  0  0  0  0
   -3.2779   -2.3147    0.2135 C   0  0  0  0  0  0  0  0  0  0  0  0
    3.2321    0.4139    0.2811 C   0  0  0  0  0  0  0  0  0  0  0  0
   -2.1709    0.1287   -0.4928 H   0  0  0  0  0  0  0  0  0  0  0  0
   -1.6387   -0.3230   -2.0995 H   0  0  0  0  0  0  0  0  0  0  0  0
   -2.6131   -2.6379   -1.7991 H   0  0  0  0  0  0  0  0  0  0  0  0
   -0.9312   -3.3803   -0.0712 H   0  0  0  0  0  0  0  0  0  0  0  0
    1.4392   -3.3838    0.7188 H   0  0  0  0  0  0  0  0  0  0  0  0
    0.2931    1.5661   -1.0187 H   0  0  0  0  0  0  0  0  0  0  0  0
    3.6149   -1.6075    0.9592 H   0  0  0  0  0  0  0  0  0  0  0  0
   -4.8476   -1.9773   -1.8576 H   0  0  0  0  0  0  0  0  0  0  0  0
   -3.9688   -0.8637   -2.6604 H   0  0  0  0  0  0  0  0  0  0  0  0
    4.2384    0.7476    0.5253 H   0  0  0  0  0  0  0  0  0  0  0  0
   -2.7056   -3.7269    1.4292 H   0  0  0  0  0  0  0  0  0  0  0  0
  1 14  1  0  0  0  0
  2 15  1  0  0  0  0
  2 27  1  0  0  0  0
  3 15  2  0  0  0  0
  4 10  1  0  0  0  0
  4 11  1  0  0  0  0
  4 21  1  0  0  0  0
  5  9  1  0  0  0  0
  5 24  1  0  0  0  0
  5 25  1  0  0  0  0
  6  7  1  0  0  0  0
  6  8  1  0  0  0  0
  6 11  2  0  0  0  0
  7  9  1  0  0  0  0
  7 17  1  0  0  0  0
  7 18  1  0  0  0  0
  8 10  2  0  0  0  0
  8 12  1  0  0  0  0
  9 15  1  0  0  0  0
  9 19  1  6  0  0  0
 10 13  1  0  0  0  0
 11 20  1  0  0  0  0
 12 14  2  0  0  0  0
 12 22  1  0  0  0  0
 13 16  2  0  0  0  0
 13 23  1  0  0  0  0
 14 16  1  0  0  0  0
 16 26  1  0  0  0  0
M  END
>  <PUBCHEM_COMPOUND_CID>
96735

>  <PUBCHEM_CONFORMER_RMSD>
0.6

>  <PUBCHEM_CONFORMER_DIVERSEORDER>
1
21
23
27
7
6
17
16
25
18
8
20
15
13
19
3
26
9
22
14
12
11
4
5
10
2
24

>  <PUBCHEM_MMFF94_PARTIAL_CHARGES>
23
1 -0.11
10 -0.15
11 -0.3
12 -0.15
13 -0.15
14 0.11
15 0.66
16 -0.15
2 -0.65
20 0.15
21 0.27
22 0.15
23 0.15
24 0.36
25 0.36
26 0.15
27 0.5
3 -0.57
4 0.03
5 -0.99
6 -0.18
7 0.18
9 0.33

>  <PUBCHEM_EFFECTIVE_ROTOR_COUNT>
3

>  <PUBCHEM_PHARMACOPHORE_FEATURES>
10
1 1 hydrophobe
1 2 acceptor
1 3 acceptor
1 4 cation
1 4 donor
1 5 cation
1 5 donor
3 2 3 15 anion
5 4 6 8 10 11 rings
6 8 10 12 13 14 16 rings

>  <PUBCHEM_HEAVY_ATOM_COUNT>
16

>  <PUBCHEM_ATOM_DEF_STEREO_COUNT>
0

>  <PUBCHEM_ATOM_UDEF_STEREO_COUNT>
1

>  <PUBCHEM_BOND_DEF_STEREO_COUNT>
0

>  <PUBCHEM_BOND_UDEF_STEREO_COUNT>
0

>  <PUBCHEM_ISOTOPIC_ATOM_COUNT>
0

>  <PUBCHEM_COMPONENT_COUNT>
1

>  <PUBCHEM_CACTVS_TAUTO_COUNT>
1

>  <PUBCHEM_CONFORMER_ID>
000179DF00000001

>  <PUBCHEM_MMFF94_ENERGY>
20.9886

>  <PUBCHEM_FEATURE_SELFOVERLAP>
50.892

>  <PUBCHEM_SHAPE_FINGERPRINT>
11471102 22 18113907017704346890
11640471 11 17845098359332862833
12403259 327 15647322104417206741
12491281 212 18263649618382218608
13140716 1 18189606327898569578
13618510 140 18409452526420472100
13764800 53 18048323532925062602
14787075 74 18124315167178597895
15490181 8 18412833503275010278
15775835 57 18201723929178119937
16945 1 18409454652334331470
192875 21 18339062822754813833
20510252 161 17617664697134019442
21524375 3 18272090525808676422
21665062 11 17834692495224876801
22094290 62 18410011057116016980
23419403 2 14064036600601634441
23557571 272 16485554645227557526
2748010 2 18192158298407538726
305870 269 18338518525844391474
4175511 71 18193564372126828886
474 4 18409165523688807169
526903 126 17838055166860279408
537710 114 18202278130768364809
63268167 104 18338793420873123914
6333272 397 18409730685624180515
7364860 26 18057606464616908766
74978 22 18337957904190356830
7832392 63 17908425753689332281

>  <PUBCHEM_SHAPE_MULTIPOLES>
313.51
5.41
2.92
1.01
0.7
0.2
-0.2
3.22
0.26
-1.3
0
0.39
0.19
-0.91

>  <PUBCHEM_SHAPE_SELFOVERLAP>
660.978

>  <PUBCHEM_SHAPE_VOLUME>
181.1

>  <PUBCHEM_COORDINATE_TYPE>
2
5
10

$$$$
96735
 OpenBabel12092211543D

 27 28  0  0  1  0  0  0  0  0999 V2000
    2.8050    3.0955   -0.5916 Br  0  0  0  0  0  0  0  0  0  0  0  0
   -3.7638    0.8364   -1.9927 O   0  0  0  0  0  0  0  0  0  0  0  0
   -3.4287    0.3308   -4.1844 O   0  0  0  0  0  0  0  0  0  0  0  0
    0.9914   -2.5586    0.3446 N   0  0  0  0  0  0  0  0  0  0  0  0
   -0.7562    0.9435   -2.5900 N   0  0  0  0  0  0  0  0  0  0  0  0
   -0.5449   -1.2179   -0.5323 C   0  0  0  0  0  0  0  0  0  0  0  0
   -1.8190   -0.7222   -1.0920 C   0  0  0  0  0  0  0  0  0  0  0  0
    0.6466   -0.4639   -0.3410 C   0  0  0  0  0  0  0  0  0  0  0  0
   -1.6979   -0.1764   -2.5362 C   0  0  1  0  0  0  0  0  0  0  0  0
    1.5947   -1.3284    0.2104 C   0  0  0  0  0  0  0  0  0  0  0  0
   -0.3016   -2.5018   -0.1016 C   0  0  0  0  0  0  0  0  0  0  0  0
    1.0106    0.8754   -0.5845 C   0  0  0  0  0  0  0  0  0  0  0  0
    2.8938   -0.9191    0.5315 C   0  0  0  0  0  0  0  0  0  0  0  0
    2.3066    1.2990   -0.2683 C   0  0  0  0  0  0  0  0  0  0  0  0
   -3.0313    0.3504   -3.0281 C   0  0  0  0  0  0  0  0  0  0  0  0
    3.2321    0.4139    0.2811 C   0  0  0  0  0  0  0  0  0  0  0  0
   -2.5647   -1.5284   -1.0640 H   0  0  0  0  0  0  0  0  0  0  0  0
   -2.2133    0.0712   -0.4423 H   0  0  0  0  0  0  0  0  0  0  0  0
   -1.3443   -0.9592   -3.2178 H   0  0  0  0  0  0  0  0  0  0  0  0
   -0.9312   -3.3803   -0.0712 H   0  0  0  0  0  0  0  0  0  0  0  0
    1.4392   -3.3838    0.7188 H   0  0  0  0  0  0  0  0  0  0  0  0
    0.2931    1.5661   -1.0187 H   0  0  0  0  0  0  0  0  0  0  0  0
    3.6149   -1.6075    0.9592 H   0  0  0  0  0  0  0  0  0  0  0  0
   -0.6205    1.2299   -3.5591 H   0  0  0  0  0  0  0  0  0  0  0  0
    0.1564    0.6370   -2.2547 H   0  0  0  0  0  0  0  0  0  0  0  0
    4.2384    0.7476    0.5253 H   0  0  0  0  0  0  0  0  0  0  0  0
   -4.6347    1.1767   -2.2892 H   0  0  0  0  0  0  0  0  0  0  0  0
  1 14  1  0  0  0  0
  2 15  1  0  0  0  0
  2 27  1  0  0  0  0
  3 15  2  0  0  0  0
  4 10  1  0  0  0  0
  4 11  1  0  0  0  0
  4 21  1  0  0  0  0
  5  9  1  0  0  0  0
  5 24  1  0  0  0  0
  5 25  1  0  0  0  0
  6  7  1  0  0  0  0
  6  8  1  0  0  0  0
  6 11  2  0  0  0  0
  7  9  1  0  0  0  0
  7 17  1  0  0  0  0
  7 18  1  0  0  0  0
  8 10  2  0  0  0  0
  8 12  1  0  0  0  0
  9 15  1  0  0  0  0
  9 19  1  6  0  0  0
 10 13  1  0  0  0  0
 11 20  1  0  0  0  0
 12 14  2  0  0  0  0
 12 22  1  0  0  0  0
 13 16  2  0  0  0  0
 13 23  1  0  0  0  0
 14 16  1  0  0  0  0
 16 26  1  0  0  0  0
M  END
>  <PUBCHEM_COMPOUND_CID>
96735

>  <PUBCHEM_CONFORMER_RMSD>
0.6

>  <PUBCHEM_CONFORMER_DIVERSEORDER>
1
21
23
27
7
6
17
16
25
18
8
20
15
13
19
3
26
9
22
14
12
11
4
5
10
2
24

>  <PUBCHEM_MMFF94_PARTIAL_CHARGES>
23
1 -0.11
10 -0.15
11 -0.3
12 -0.15
13 -0.15
14 0.11
15 0.66
16 -0.15
2 -0.65
20 0.15
21 0.27
22 0.15
23 0.15
24 0.36
25 0.36
26 0.15
27 0.5
3 -0.57
4 0.03
5 -0.99
6 -0.18
7 0.18
9 0.33

>  <PUBCHEM_EFFECTIVE_ROTOR_COUNT>
3

>  <PUBCHEM_PHARMACOPHORE_FEATURES>
10
1 1 hydrophobe
1 2 acceptor
1 3 acceptor
1 4 cation
1 4 donor
1 5 cation
1 5 donor
3 2 3 15 anion
5 4 6 8 10 11 rings
6 8 10 12 13 14 16 rings

>  <PUBCHEM_HEAVY_ATOM_COUNT>
16

>  <PUBCHEM_ATOM_DEF_STEREO_COUNT>
0

>  <PUBCHEM_ATOM_UDEF_STEREO_COUNT>
1

>  <PUBCHEM_BOND_DEF_STEREO_COUNT>
0

>  <PUBCHEM_BOND_UDEF_STEREO_COUNT>
0

>  <PUBCHEM_ISOTOPIC_ATOM_COUNT>
0

>  <PUBCHEM_COMPONENT_COUNT>
1

>  <PUBCHEM_CACTVS_TAUTO_COUNT>
1

>  <PUBCHEM_CONFORMER_ID>
000179DF00000001

>  <PUBCHEM_MMFF94_ENERGY>
20.9886

>  <PUBCHEM_FEATURE_SELFOVERLAP>
50.892

>  <PUBCHEM_SHAPE_FINGERPRINT>
11471102 22 18113907017704346890
11640471 11 17845098359332862833
12403259 327 15647322104417206741
12491281 212 18263649618382218608
13140716 1 18189606327898569578
13618510 140 18409452526420472100
13764800 53 18048323532925062602
14787075 74 18124315167178597895
15490181 8 18412833503275010278
15775835 57 18201723929178119937
16945 1 18409454652334331470
192875 21 18339062822754813833
20510252 161 17617664697134019442
21524375 3 18272090525808676422
21665062 11 17834692495224876801
22094290 62 18410011057116016980
23419403 2 14064036600601634441
23557571 272 16485554645227557526
2748010 2 18192158298407538726
305870 269 18338518525844391474
4175511 71 18193564372126828886
474 4 18409165523688807169
526903 126 17838055166860279408
537710 114 18202278130768364809
63268167 104 18338793420873123914
6333272 397 18409730685624180515
7364860 26 18057606464616908766
74978 22 18337957904190356830
7832392 63 17908425753689332281

>  <PUBCHEM_SHAPE_MULTIPOLES>
313.51
5.41
2.92
1.01
0.7
0.2
-0.2
3.22
0.26
-1.3
0
0.39
0.19
-0.91

>  <PUBCHEM_SHAPE_SELFOVERLAP>
660.978

>  <PUBCHEM_SHAPE_VOLUME>
181.1

>  <PUBCHEM_COORDINATE_TYPE>
2
5
10

$$$$
96735
 OpenBabel12092211543D

 27 28  0  0  1  0  0  0  0  0999 V2000
    2.8050    3.0955   -0.5916 Br  0  0  0  0  0  0  0  0  0  0  0  0
   -3.5485   -3.2313   -2.0169 O   0  0  0  0  0  0  0  0  0  0  0  0
   -2.5282   -3.7827   -0.0608 O   0  0  0  0  0  0  0  0  0  0  0  0
    0.9914   -2.5586    0.3446 N   0  0  0  0  0  0  0  0  0  0  0  0
   -3.1625   -1.2901    0.9131 N   0  0  0  0  0  0  0  0  0  0  0  0
   -0.5449   -1.2179   -0.5323 C   0  0  0  0  0  0  0  0  0  0  0  0
   -1.8190   -0.7222   -1.0920 C   0  0  0  0  0  0  0  0  0  0  0  0
    0.6466   -0.4639   -0.3410 C   0  0  0  0  0  0  0  0  0  0  0  0
   -3.0700   -1.4488   -0.5395 C   0  0  1  0  0  0  0  0  0  0  0  0
    1.5947   -1.3284    0.2104 C   0  0  0  0  0  0  0  0  0  0  0  0
   -0.3016   -2.5018   -0.1016 C   0  0  0  0  0  0  0  0  0  0  0  0
    1.0106    0.8754   -0.5845 C   0  0  0  0  0  0  0  0  0  0  0  0
    2.8938   -0.9191    0.5315 C   0  0  0  0  0  0  0  0  0  0  0  0
    2.3066    1.2990   -0.2683 C   0  0  0  0  0  0  0  0  0  0  0  0
   -2.9943   -2.9379   -0.8121 C   0  0  0  0  0  0  0  0  0  0  0  0
    3.2321    0.4139    0.2811 C   0  0  0  0  0  0  0  0  0  0  0  0
   -1.9039    0.3560   -0.8994 H   0  0  0  0  0  0  0  0  0  0  0  0
   -1.7978   -0.8289   -2.1852 H   0  0  0  0  0  0  0  0  0  0  0  0
   -3.9838   -1.0443   -0.9910 H   0  0  0  0  0  0  0  0  0  0  0  0
   -0.9312   -3.3803   -0.0712 H   0  0  0  0  0  0  0  0  0  0  0  0
    1.4392   -3.3838    0.7188 H   0  0  0  0  0  0  0  0  0  0  0  0
    0.2931    1.5661   -1.0187 H   0  0  0  0  0  0  0  0  0  0  0  0
    3.6149   -1.6075    0.9592 H   0  0  0  0  0  0  0  0  0  0  0  0
   -4.0366   -1.6956    1.2464 H   0  0  0  0  0  0  0  0  0  0  0  0
   -3.2037   -0.2983    1.1450 H   0  0  0  0  0  0  0  0  0  0  0  0
    4.2384    0.7476    0.5253 H   0  0  0  0  0  0  0  0  0  0  0  0
   -3.5156   -4.1924   -2.2100 H   0  0  0  0  0  0  0  0  0  0  0  0
  1 14  1  0  0  0  0
  2 15  1  0  0  0  0
  2 27  1  0  0  0  0
  3 15  2  0  0  0  0
  4 10  1  0  0  0  0
  4 11  1  0  0  0  0
  4 21  1  0  0  0  0
  5  9  1  0  0  0  0
  5 24  1  0  0  0  0
  5 25  1  0  0  0  0
  6  7  1  0  0  0  0
  6  8  1  0  0  0  0
  6 11  2  0  0  0  0
  7  9  1  0  0  0  0
  7 17  1  0  0  0  0
  7 18  1  0  0  0  0
  8 10  2  0  0  0  0
  8 12  1  0  0  0  0
  9 15  1  0  0  0  0
  9 19  1  6  0  0  0
 10 13  1  0  0  0  0
 11 20  1  0  0  0  0
 12 14  2  0  0  0  0
 12 22  1  0  0  0  0
 13 16  2  0  0  0  0
 13 23  1  0  0  0  0
 14 16  1  0  0  0  0
 16 26  1  0  0  0  0
M  END
>  <PUBCHEM_COMPOUND_CID>
96735

>  <PUBCHEM_CONFORMER_RMSD>
0.6

>  <PUBCHEM_CONFORMER_DIVERSEORDER>
1
21
23
27
7
6
17
16
25
18
8
20
15
13
19
3
26
9
22
14
12
11
4
5
10
2
24

>  <PUBCHEM_MMFF94_PARTIAL_CHARGES>
23
1 -0.11
10 -0.15
11 -0.3
12 -0.15
13 -0.15
14 0.11
15 0.66
16 -0.15
2 -0.65
20 0.15
21 0.27
22 0.15
23 0.15
24 0.36
25 0.36
26 0.15
27 0.5
3 -0.57
4 0.03
5 -0.99
6 -0.18
7 0.18
9 0.33

>  <PUBCHEM_EFFECTIVE_ROTOR_COUNT>
3

>  <PUBCHEM_PHARMACOPHORE_FEATURES>
10
1 1 hydrophobe
1 2 acceptor
1 3 acceptor
1 4 cation
1 4 donor
1 5 cation
1 5 donor
3 2 3 15 anion
5 4 6 8 10 11 rings
6 8 10 12 13 14 16 rings

>  <PUBCHEM_HEAVY_ATOM_COUNT>
16

>  <PUBCHEM_ATOM_DEF_STEREO_COUNT>
0

>  <PUBCHEM_ATOM_UDEF_STEREO_COUNT>
1

>  <PUBCHEM_BOND_DEF_STEREO_COUNT>
0

>  <PUBCHEM_BOND_UDEF_STEREO_COUNT>
0

>  <PUBCHEM_ISOTOPIC_ATOM_COUNT>
0

>  <PUBCHEM_COMPONENT_COUNT>
1

>  <PUBCHEM_CACTVS_TAUTO_COUNT>
1

>  <PUBCHEM_CONFORMER_ID>
000179DF00000001

>  <PUBCHEM_MMFF94_ENERGY>
20.9886

>  <PUBCHEM_FEATURE_SELFOVERLAP>
50.892

>  <PUBCHEM_SHAPE_FINGERPRINT>
11471102 22 18113907017704346890
11640471 11 17845098359332862833
12403259 327 15647322104417206741
12491281 212 18263649618382218608
13140716 1 18189606327898569578
13618510 140 18409452526420472100
13764800 53 18048323532925062602
14787075 74 18124315167178597895
15490181 8 18412833503275010278
15775835 57 18201723929178119937
16945 1 18409454652334331470
192875 21 18339062822754813833
20510252 161 17617664697134019442
21524375 3 18272090525808676422
21665062 11 17834692495224876801
22094290 62 18410011057116016980
23419403 2 14064036600601634441
23557571 272 16485554645227557526
2748010 2 18192158298407538726
305870 269 18338518525844391474
4175511 71 18193564372126828886
474 4 18409165523688807169
526903 126 17838055166860279408
537710 114 18202278130768364809
63268167 104 18338793420873123914
6333272 397 18409730685624180515
7364860 26 18057606464616908766
74978 22 18337957904190356830
7832392 63 17908425753689332281

>  <PUBCHEM_SHAPE_MULTIPOLES>
313.51
5.41
2.92
1.01
0.7
0.2
-0.2
3.22
0.26
-1.3
0
0.39
0.19
-0.91

>  <PUBCHEM_SHAPE_SELFOVERLAP>
660.978

>  <PUBCHEM_SHAPE_VOLUME>
181.1

>  <PUBCHEM_COORDINATE_TYPE>
2
5
10

$$$$
96735
 OpenBabel12092211543D

 27 28  0  0  1  0  0  0  0  0999 V2000
    2.8050    3.0955   -0.5916 Br  0  0  0  0  0  0  0  0  0  0  0  0
   -4.8249    0.1344   -0.4811 O   0  0  0  0  0  0  0  0  0  0  0  0
   -4.8710   -1.3669   -2.1886 O   0  0  0  0  0  0  0  0  0  0  0  0
    0.9914   -2.5586    0.3446 N   0  0  0  0  0  0  0  0  0  0  0  0
   -3.0129   -2.8807   -0.8397 N   0  0  0  0  0  0  0  0  0  0  0  0
   -0.5449   -1.2179   -0.5323 C   0  0  0  0  0  0  0  0  0  0  0  0
   -1.8190   -0.7222   -1.0920 C   0  0  0  0  0  0  0  0  0  0  0  0
    0.6466   -0.4639   -0.3410 C   0  0  0  0  0  0  0  0  0  0  0  0
   -3.0700   -1.4488   -0.5395 C   0  0  1  0  0  0  0  0  0  0  0  0
    1.5947   -1.3284    0.2104 C   0  0  0  0  0  0  0  0  0  0  0  0
   -0.3016   -2.5018   -0.1016 C   0  0  0  0  0  0  0  0  0  0  0  0
    1.0106    0.8754   -0.5845 C   0  0  0  0  0  0  0  0  0  0  0  0
    2.8938   -0.9191    0.5315 C   0  0  0  0  0  0  0  0  0  0  0  0
    2.3066    1.2990   -0.2683 C   0  0  0  0  0  0  0  0  0  0  0  0
   -4.3333   -0.9170   -1.1867 C   0  0  0  0  0  0  0  0  0  0  0  0
    3.2321    0.4139    0.2811 C   0  0  0  0  0  0  0  0  0  0  0  0
   -1.9039    0.3560   -0.8994 H   0  0  0  0  0  0  0  0  0  0  0  0
   -1.7978   -0.8289   -2.1852 H   0  0  0  0  0  0  0  0  0  0  0  0
   -3.1409   -1.3254    0.5478 H   0  0  0  0  0  0  0  0  0  0  0  0
   -0.9312   -3.3803   -0.0712 H   0  0  0  0  0  0  0  0  0  0  0  0
    1.4392   -3.3838    0.7188 H   0  0  0  0  0  0  0  0  0  0  0  0
    0.2931    1.5661   -1.0187 H   0  0  0  0  0  0  0  0  0  0  0  0
    3.6149   -1.6075    0.9592 H   0  0  0  0  0  0  0  0  0  0  0  0
   -3.7960   -3.3555   -0.3915 H   0  0  0  0  0  0  0  0  0  0  0  0
   -2.1683   -3.2803   -0.4320 H   0  0  0  0  0  0  0  0  0  0  0  0
    4.2384    0.7476    0.5253 H   0  0  0  0  0  0  0  0  0  0  0  0
   -5.6475    0.4897   -0.8801 H   0  0  0  0  0  0  0  0  0  0  0  0
  1 14  1  0  0  0  0
  2 15  1  0  0  0  0
  2 27  1  0  0  0  0
  3 15  2  0  0  0  0
  4 10  1  0  0  0  0
  4 11  1  0  0  0  0
  4 21  1  0  0  0  0
  5  9  1  0  0  0  0
  5 24  1  0  0  0  0
  5 25  1  0  0  0  0
  6  7  1  0  0  0  0
  6  8  1  0  0  0  0
  6 11  2  0  0  0  0
  7  9  1  0  0  0  0
  7 17  1  0  0  0  0
  7 18  1  0  0  0  0
  8 10  2  0  0  0  0
  8 12  1  0  0  0  0
  9 15  1  0  0  0  0
  9 19  1  1  0  0  0
 10 13  1  0  0  0  0
 11 20  1  0  0  0  0
 12 14  2  0  0  0  0
 12 22  1  0  0  0  0
 13 16  2  0  0  0  0
 13 23  1  0  0  0  0
 14 16  1  0  0  0  0
 16 26  1  0  0  0  0
M  END
>  <PUBCHEM_COMPOUND_CID>
96735

>  <PUBCHEM_CONFORMER_RMSD>
0.6

>  <PUBCHEM_CONFORMER_DIVERSEORDER>
1
21
23
27
7
6
17
16
25
18
8
20
15
13
19
3
26
9
22
14
12
11
4
5
10
2
24

>  <PUBCHEM_MMFF94_PARTIAL_CHARGES>
23
1 -0.11
10 -0.15
11 -0.3
12 -0.15
13 -0.15
14 0.11
15 0.66
16 -0.15
2 -0.65
20 0.15
21 0.27
22 0.15
23 0.15
24 0.36
25 0.36
26 0.15
27 0.5
3 -0.57
4 0.03
5 -0.99
6 -0.18
7 0.18
9 0.33

>  <PUBCHEM_EFFECTIVE_ROTOR_COUNT>
3

>  <PUBCHEM_PHARMACOPHORE_FEATURES>
10
1 1 hydrophobe
1 2 acceptor
1 3 acceptor
1 4 cation
1 4 donor
1 5 cation
1 5 donor
3 2 3 15 anion
5 4 6 8 10 11 rings
6 8 10 12 13 14 16 rings

>  <PUBCHEM_HEAVY_ATOM_COUNT>
16

>  <PUBCHEM_ATOM_DEF_STEREO_COUNT>
0

>  <PUBCHEM_ATOM_UDEF_STEREO_COUNT>
1

>  <PUBCHEM_BOND_DEF_STEREO_COUNT>
0

>  <PUBCHEM_BOND_UDEF_STEREO_COUNT>
0

>  <PUBCHEM_ISOTOPIC_ATOM_COUNT>
0

>  <PUBCHEM_COMPONENT_COUNT>
1

>  <PUBCHEM_CACTVS_TAUTO_COUNT>
1

>  <PUBCHEM_CONFORMER_ID>
000179DF00000001

>  <PUBCHEM_MMFF94_ENERGY>
20.9886

>  <PUBCHEM_FEATURE_SELFOVERLAP>
50.892

>  <PUBCHEM_SHAPE_FINGERPRINT>
11471102 22 18113907017704346890
11640471 11 17845098359332862833
12403259 327 15647322104417206741
12491281 212 18263649618382218608
13140716 1 18189606327898569578
13618510 140 18409452526420472100
13764800 53 18048323532925062602
14787075 74 18124315167178597895
15490181 8 18412833503275010278
15775835 57 18201723929178119937
16945 1 18409454652334331470
192875 21 18339062822754813833
20510252 161 17617664697134019442
21524375 3 18272090525808676422
21665062 11 17834692495224876801
22094290 62 18410011057116016980
23419403 2 14064036600601634441
23557571 272 16485554645227557526
2748010 2 18192158298407538726
305870 269 18338518525844391474
4175511 71 18193564372126828886
474 4 18409165523688807169
526903 126 17838055166860279408
537710 114 18202278130768364809
63268167 104 18338793420873123914
6333272 397 18409730685624180515
7364860 26 18057606464616908766
74978 22 18337957904190356830
7832392 63 17908425753689332281

>  <PUBCHEM_SHAPE_MULTIPOLES>
313.51
5.41
2.92
1.01
0.7
0.2
-0.2
3.22
0.26
-1.3
0
0.39
0.19
-0.91

>  <PUBCHEM_SHAPE_SELFOVERLAP>
660.978

>  <PUBCHEM_SHAPE_VOLUME>
181.1

>  <PUBCHEM_COORDINATE_TYPE>
2
5
10

$$$$
96735
 OpenBabel12092211543D

 27 28  0  0  1  0  0  0  0  0999 V2000
    2.8050    3.0955   -0.5916 Br  0  0  0  0  0  0  0  0  0  0  0  0
   -1.7893   -0.8989    1.5520 O   0  0  0  0  0  0  0  0  0  0  0  0
   -3.6178    0.4169    1.8627 O   0  0  0  0  0  0  0  0  0  0  0  0
    0.9914   -2.5586    0.3446 N   0  0  0  0  0  0  0  0  0  0  0  0
   -1.5412    1.5862   -0.2304 N   0  0  0  0  0  0  0  0  0  0  0  0
   -0.5449   -1.2179   -0.5323 C   0  0  0  0  0  0  0  0  0  0  0  0
   -1.8190   -0.7222   -1.0920 C   0  0  0  0  0  0  0  0  0  0  0  0
    0.6466   -0.4639   -0.3410 C   0  0  0  0  0  0  0  0  0  0  0  0
   -2.4487    0.4383   -0.2827 C   0  0  1  0  0  0  0  0  0  0  0  0
    1.5947   -1.3284    0.2104 C   0  0  0  0  0  0  0  0  0  0  0  0
   -0.3016   -2.5018   -0.1016 C   0  0  0  0  0  0  0  0  0  0  0  0
    1.0106    0.8754   -0.5845 C   0  0  0  0  0  0  0  0  0  0  0  0
    2.8938   -0.9191    0.5315 C   0  0  0  0  0  0  0  0  0  0  0  0
    2.3066    1.2990   -0.2683 C   0  0  0  0  0  0  0  0  0  0  0  0
   -2.7061    0.0195    1.1511 C   0  0  0  0  0  0  0  0  0  0  0  0
    3.2321    0.4139    0.2811 C   0  0  0  0  0  0  0  0  0  0  0  0
   -1.6581   -0.4024   -2.1306 H   0  0  0  0  0  0  0  0  0  0  0  0
   -2.5369   -1.5523   -1.1435 H   0  0  0  0  0  0  0  0  0  0  0  0
   -3.3912    0.7625   -0.7398 H   0  0  0  0  0  0  0  0  0  0  0  0
   -0.9312   -3.3803   -0.0712 H   0  0  0  0  0  0  0  0  0  0  0  0
    1.4392   -3.3838    0.7188 H   0  0  0  0  0  0  0  0  0  0  0  0
    0.2931    1.5661   -1.0187 H   0  0  0  0  0  0  0  0  0  0  0  0
    3.6149   -1.6075    0.9592 H   0  0  0  0  0  0  0  0  0  0  0  0
   -2.0069    2.3697    0.2264 H   0  0  0  0  0  0  0  0  0  0  0  0
   -1.3294    1.8959   -1.1783 H   0  0  0  0  0  0  0  0  0  0  0  0
    4.2384    0.7476    0.5253 H   0  0  0  0  0  0  0  0  0  0  0  0
   -1.9423   -1.1886    2.4765 H   0  0  0  0  0  0  0  0  0  0  0  0
  1 14  1  0  0  0  0
  2 15  1  0  0  0  0
  2 27  1  0  0  0  0
  3 15  2  0  0  0  0
  4 10  1  0  0  0  0
  4 11  1  0  0  0  0
  4 21  1  0  0  0  0
  5  9  1  0  0  0  0
  5 24  1  0  0  0  0
  5 25  1  0  0  0  0
  6  7  1  0  0  0  0
  6  8  1  0  0  0  0
  6 11  2  0  0  0  0
  7  9  1  0  0  0  0
  7 17  1  0  0  0  0
  7 18  1  0  0  0  0
  8 10  2  0  0  0  0
  8 12  1  0  0  0  0
  9 15  1  0  0  0  0
  9 19  1  6  0  0  0
 10 13  1  0  0  0  0
 11 20  1  0  0  0  0
 12 14  2  0  0  0  0
 12 22  1  0  0  0  0
 13 16  2  0  0  0  0
 13 23  1  0  0  0  0
 14 16  1  0  0  0  0
 16 26  1  0  0  0  0
M  END
>  <PUBCHEM_COMPOUND_CID>
96735

>  <PUBCHEM_CONFORMER_RMSD>
0.6

>  <PUBCHEM_CONFORMER_DIVERSEORDER>
1
21
23
27
7
6
17
16
25
18
8
20
15
13
19
3
26
9
22
14
12
11
4
5
10
2
24

>  <PUBCHEM_MMFF94_PARTIAL_CHARGES>
23
1 -0.11
10 -0.15
11 -0.3
12 -0.15
13 -0.15
14 0.11
15 0.66
16 -0.15
2 -0.65
20 0.15
21 0.27
22 0.15
23 0.15
24 0.36
25 0.36
26 0.15
27 0.5
3 -0.57
4 0.03
5 -0.99
6 -0.18
7 0.18
9 0.33

>  <PUBCHEM_EFFECTIVE_ROTOR_COUNT>
3

>  <PUBCHEM_PHARMACOPHORE_FEATURES>
10
1 1 hydrophobe
1 2 acceptor
1 3 acceptor
1 4 cation
1 4 donor
1 5 cation
1 5 donor
3 2 3 15 anion
5 4 6 8 10 11 rings
6 8 10 12 13 14 16 rings

>  <PUBCHEM_HEAVY_ATOM_COUNT>
16

>  <PUBCHEM_ATOM_DEF_STEREO_COUNT>
0

>  <PUBCHEM_ATOM_UDEF_STEREO_COUNT>
1

>  <PUBCHEM_BOND_DEF_STEREO_COUNT>
0

>  <PUBCHEM_BOND_UDEF_STEREO_COUNT>
0

>  <PUBCHEM_ISOTOPIC_ATOM_COUNT>
0

>  <PUBCHEM_COMPONENT_COUNT>
1

>  <PUBCHEM_CACTVS_TAUTO_COUNT>
1

>  <PUBCHEM_CONFORMER_ID>
000179DF00000001

>  <PUBCHEM_MMFF94_ENERGY>
20.9886

>  <PUBCHEM_FEATURE_SELFOVERLAP>
50.892

>  <PUBCHEM_SHAPE_FINGERPRINT>
11471102 22 18113907017704346890
11640471 11 17845098359332862833
12403259 327 15647322104417206741
12491281 212 18263649618382218608
13140716 1 18189606327898569578
13618510 140 18409452526420472100
13764800 53 18048323532925062602
14787075 74 18124315167178597895
15490181 8 18412833503275010278
15775835 57 18201723929178119937
16945 1 18409454652334331470
192875 21 18339062822754813833
20510252 161 17617664697134019442
21524375 3 18272090525808676422
21665062 11 17834692495224876801
22094290 62 18410011057116016980
23419403 2 14064036600601634441
23557571 272 16485554645227557526
2748010 2 18192158298407538726
305870 269 18338518525844391474
4175511 71 18193564372126828886
474 4 18409165523688807169
526903 126 17838055166860279408
537710 114 18202278130768364809
63268167 104 18338793420873123914
6333272 397 18409730685624180515
7364860 26 18057606464616908766
74978 22 18337957904190356830
7832392 63 17908425753689332281

>  <PUBCHEM_SHAPE_MULTIPOLES>
313.51
5.41
2.92
1.01
0.7
0.2
-0.2
3.22
0.26
-1.3
0
0.39
0.19
-0.91

>  <PUBCHEM_SHAPE_SELFOVERLAP>
660.978

>  <PUBCHEM_SHAPE_VOLUME>
181.1

>  <PUBCHEM_COORDINATE_TYPE>
2
5
10

$$$$
96735
 OpenBabel12092211543D

 27 28  0  0  1  0  0  0  0  0999 V2000
    2.8050    3.0955   -0.5916 Br  0  0  0  0  0  0  0  0  0  0  0  0
   -4.6373   -1.6336   -2.2998 O   0  0  0  0  0  0  0  0  0  0  0  0
   -4.9927    0.0367   -0.7980 O   0  0  0  0  0  0  0  0  0  0  0  0
    0.9914   -2.5586    0.3446 N   0  0  0  0  0  0  0  0  0  0  0  0
   -3.0129   -2.8807   -0.8397 N   0  0  0  0  0  0  0  0  0  0  0  0
   -0.5449   -1.2179   -0.5323 C   0  0  0  0  0  0  0  0  0  0  0  0
   -1.8190   -0.7222   -1.0920 C   0  0  0  0  0  0  0  0  0  0  0  0
    0.6466   -0.4639   -0.3410 C   0  0  0  0  0  0  0  0  0  0  0  0
   -3.0700   -1.4488   -0.5395 C   0  0  1  0  0  0  0  0  0  0  0  0
    1.5947   -1.3284    0.2104 C   0  0  0  0  0  0  0  0  0  0  0  0
   -0.3016   -2.5018   -0.1016 C   0  0  0  0  0  0  0  0  0  0  0  0
    1.0106    0.8754   -0.5845 C   0  0  0  0  0  0  0  0  0  0  0  0
    2.8938   -0.9191    0.5315 C   0  0  0  0  0  0  0  0  0  0  0  0
    2.3066    1.2990   -0.2683 C   0  0  0  0  0  0  0  0  0  0  0  0
   -4.3333   -0.9170   -1.1867 C   0  0  0  0  0  0  0  0  0  0  0  0
    3.2321    0.4139    0.2811 C   0  0  0  0  0  0  0  0  0  0  0  0
   -1.9039    0.3560   -0.8994 H   0  0  0  0  0  0  0  0  0  0  0  0
   -1.7978   -0.8289   -2.1852 H   0  0  0  0  0  0  0  0  0  0  0  0
   -3.1409   -1.3254    0.5478 H   0  0  0  0  0  0  0  0  0  0  0  0
   -0.9312   -3.3803   -0.0712 H   0  0  0  0  0  0  0  0  0  0  0  0
    1.4392   -3.3838    0.7188 H   0  0  0  0  0  0  0  0  0  0  0  0
    0.2931    1.5661   -1.0187 H   0  0  0  0  0  0  0  0  0  0  0  0
    3.6149   -1.6075    0.9592 H   0  0  0  0  0  0  0  0  0  0  0  0
   -3.7960   -3.3555   -0.3915 H   0  0  0  0  0  0  0  0  0  0  0  0
   -2.1683   -3.2803   -0.4320 H   0  0  0  0  0  0  0  0  0  0  0  0
    4.2384    0.7476    0.5253 H   0  0  0  0  0  0  0  0  0  0  0  0
   -5.4492   -1.3009   -2.7382 H   0  0  0  0  0  0  0  0  0  0  0  0
  1 14  1  0  0  0  0
  2 15  1  0  0  0  0
  2 27  1  0  0  0  0
  3 15  2  0  0  0  0
  4 10  1  0  0  0  0
  4 11  1  0  0  0  0
  4 21  1  0  0  0  0
  5  9  1  0  0  0  0
  5 24  1  0  0  0  0
  5 25  1  0  0  0  0
  6  7  1  0  0  0  0
  6  8  1  0  0  0  0
  6 11  2  0  0  0  0
  7  9  1  0  0  0  0
  7 17  1  0  0  0  0
  7 18  1  0  0  0  0
  8 10  2  0  0  0  0
  8 12  1  0  0  0  0
  9 15  1  0  0  0  0
  9 19  1  1  0  0  0
 10 13  1  0  0  0  0
 11 20  1  0  0  0  0
 12 14  2  0  0  0  0
 12 22  1  0  0  0  0
 13 16  2  0  0  0  0
 13 23  1  0  0  0  0
 14 16  1  0  0  0  0
 16 26  1  0  0  0  0
M  END
>  <PUBCHEM_COMPOUND_CID>
96735

>  <PUBCHEM_CONFORMER_RMSD>
0.6

>  <PUBCHEM_CONFORMER_DIVERSEORDER>
1
21
23
27
7
6
17
16
25
18
8
20
15
13
19
3
26
9
22
14
12
11
4
5
10
2
24

>  <PUBCHEM_MMFF94_PARTIAL_CHARGES>
23
1 -0.11
10 -0.15
11 -0.3
12 -0.15
13 -0.15
14 0.11
15 0.66
16 -0.15
2 -0.65
20 0.15
21 0.27
22 0.15
23 0.15
24 0.36
25 0.36
26 0.15
27 0.5
3 -0.57
4 0.03
5 -0.99
6 -0.18
7 0.18
9 0.33

>  <PUBCHEM_EFFECTIVE_ROTOR_COUNT>
3

>  <PUBCHEM_PHARMACOPHORE_FEATURES>
10
1 1 hydrophobe
1 2 acceptor
1 3 acceptor
1 4 cation
1 4 donor
1 5 cation
1 5 donor
3 2 3 15 anion
5 4 6 8 10 11 rings
6 8 10 12 13 14 16 rings

>  <PUBCHEM_HEAVY_ATOM_COUNT>
16

>  <PUBCHEM_ATOM_DEF_STEREO_COUNT>
0

>  <PUBCHEM_ATOM_UDEF_STEREO_COUNT>
1

>  <PUBCHEM_BOND_DEF_STEREO_COUNT>
0

>  <PUBCHEM_BOND_UDEF_STEREO_COUNT>
0

>  <PUBCHEM_ISOTOPIC_ATOM_COUNT>
0

>  <PUBCHEM_COMPONENT_COUNT>
1

>  <PUBCHEM_CACTVS_TAUTO_COUNT>
1

>  <PUBCHEM_CONFORMER_ID>
000179DF00000001

>  <PUBCHEM_MMFF94_ENERGY>
20.9886

>  <PUBCHEM_FEATURE_SELFOVERLAP>
50.892

>  <PUBCHEM_SHAPE_FINGERPRINT>
11471102 22 18113907017704346890
11640471 11 17845098359332862833
12403259 327 15647322104417206741
12491281 212 18263649618382218608
13140716 1 18189606327898569578
13618510 140 18409452526420472100
13764800 53 18048323532925062602
14787075 74 18124315167178597895
15490181 8 18412833503275010278
15775835 57 18201723929178119937
16945 1 18409454652334331470
192875 21 18339062822754813833
20510252 161 17617664697134019442
21524375 3 18272090525808676422
21665062 11 17834692495224876801
22094290 62 18410011057116016980
23419403 2 14064036600601634441
23557571 272 16485554645227557526
2748010 2 18192158298407538726
305870 269 18338518525844391474
4175511 71 18193564372126828886
474 4 18409165523688807169
526903 126 17838055166860279408
537710 114 18202278130768364809
63268167 104 18338793420873123914
6333272 397 18409730685624180515
7364860 26 18057606464616908766
74978 22 18337957904190356830
7832392 63 17908425753689332281

>  <PUBCHEM_SHAPE_MULTIPOLES>
313.51
5.41
2.92
1.01
0.7
0.2
-0.2
3.22
0.26
-1.3
0
0.39
0.19
-0.91

>  <PUBCHEM_SHAPE_SELFOVERLAP>
660.978

>  <PUBCHEM_SHAPE_VOLUME>
181.1

>  <PUBCHEM_COORDINATE_TYPE>
2
5
10

$$$$
96735
 OpenBabel12092211543D

 27 28  0  0  1  0  0  0  0  0999 V2000
    2.8050    3.0955   -0.5916 Br  0  0  0  0  0  0  0  0  0  0  0  0
   -1.3058    2.0951   -1.5229 O   0  0  0  0  0  0  0  0  0  0  0  0
   -1.0248    2.1443    0.7332 O   0  0  0  0  0  0  0  0  0  0  0  0
    0.9914   -2.5586    0.3446 N   0  0  0  0  0  0  0  0  0  0  0  0
   -3.7042    0.8764   -0.8955 N   0  0  0  0  0  0  0  0  0  0  0  0
   -0.5449   -1.2179   -0.5323 C   0  0  0  0  0  0  0  0  0  0  0  0
   -1.8190   -0.7222   -1.0920 C   0  0  0  0  0  0  0  0  0  0  0  0
    0.6466   -0.4639   -0.3410 C   0  0  0  0  0  0  0  0  0  0  0  0
   -2.4487    0.4383   -0.2827 C   0  0  1  0  0  0  0  0  0  0  0  0
    1.5947   -1.3284    0.2104 C   0  0  0  0  0  0  0  0  0  0  0  0
   -0.3016   -2.5018   -0.1016 C   0  0  0  0  0  0  0  0  0  0  0  0
    1.0106    0.8754   -0.5845 C   0  0  0  0  0  0  0  0  0  0  0  0
    2.8938   -0.9191    0.5315 C   0  0  0  0  0  0  0  0  0  0  0  0
    2.3066    1.2990   -0.2683 C   0  0  0  0  0  0  0  0  0  0  0  0
   -1.5293    1.6432   -0.2616 C   0  0  0  0  0  0  0  0  0  0  0  0
    3.2321    0.4139    0.2811 C   0  0  0  0  0  0  0  0  0  0  0  0
   -1.6581   -0.4024   -2.1306 H   0  0  0  0  0  0  0  0  0  0  0  0
   -2.5369   -1.5523   -1.1435 H   0  0  0  0  0  0  0  0  0  0  0  0
   -2.6570    0.1241    0.7470 H   0  0  0  0  0  0  0  0  0  0  0  0
   -0.9312   -3.3803   -0.0712 H   0  0  0  0  0  0  0  0  0  0  0  0
    1.4392   -3.3838    0.7188 H   0  0  0  0  0  0  0  0  0  0  0  0
    0.2931    1.5661   -1.0187 H   0  0  0  0  0  0  0  0  0  0  0  0
    3.6149   -1.6075    0.9592 H   0  0  0  0  0  0  0  0  0  0  0  0
   -4.1487    1.5759   -0.3016 H   0  0  0  0  0  0  0  0  0  0  0  0
   -4.3523    0.0909   -0.9419 H   0  0  0  0  0  0  0  0  0  0  0  0
    4.2384    0.7476    0.5253 H   0  0  0  0  0  0  0  0  0  0  0  0
   -0.7069    2.8718   -1.5321 H   0  0  0  0  0  0  0  0  0  0  0  0
  1 14  1  0  0  0  0
  2 15  1  0  0  0  0
  2 27  1  0  0  0  0
  3 15  2  0  0  0  0
  4 10  1  0  0  0  0
  4 11  1  0  0  0  0
  4 21  1  0  0  0  0
  5  9  1  0  0  0  0
  5 24  1  0  0  0  0
  5 25  1  0  0  0  0
  6  7  1  0  0  0  0
  6  8  1  0  0  0  0
  6 11  2  0  0  0  0
  7  9  1  0  0  0  0
  7 17  1  0  0  0  0
  7 18  1  0  0  0  0
  8 10  2  0  0  0  0
  8 12  1  0  0  0  0
  9 15  1  0  0  0  0
  9 19  1  1  0  0  0
 10 13  1  0  0  0  0
 11 20  1  0  0  0  0
 12 14  2  0  0  0  0
 12 22  1  0  0  0  0
 13 16  2  0  0  0  0
 13 23  1  0  0  0  0
 14 16  1  0  0  0  0
 16 26  1  0  0  0  0
M  END
>  <PUBCHEM_COMPOUND_CID>
96735

>  <PUBCHEM_CONFORMER_RMSD>
0.6

>  <PUBCHEM_CONFORMER_DIVERSEORDER>
1
21
23
27
7
6
17
16
25
18
8
20
15
13
19
3
26
9
22
14
12
11
4
5
10
2
24

>  <PUBCHEM_MMFF94_PARTIAL_CHARGES>
23
1 -0.11
10 -0.15
11 -0.3
12 -0.15
13 -0.15
14 0.11
15 0.66
16 -0.15
2 -0.65
20 0.15
21 0.27
22 0.15
23 0.15
24 0.36
25 0.36
26 0.15
27 0.5
3 -0.57
4 0.03
5 -0.99
6 -0.18
7 0.18
9 0.33

>  <PUBCHEM_EFFECTIVE_ROTOR_COUNT>
3

>  <PUBCHEM_PHARMACOPHORE_FEATURES>
10
1 1 hydrophobe
1 2 acceptor
1 3 acceptor
1 4 cation
1 4 donor
1 5 cation
1 5 donor
3 2 3 15 anion
5 4 6 8 10 11 rings
6 8 10 12 13 14 16 rings

>  <PUBCHEM_HEAVY_ATOM_COUNT>
16

>  <PUBCHEM_ATOM_DEF_STEREO_COUNT>
0

>  <PUBCHEM_ATOM_UDEF_STEREO_COUNT>
1

>  <PUBCHEM_BOND_DEF_STEREO_COUNT>
0

>  <PUBCHEM_BOND_UDEF_STEREO_COUNT>
0

>  <PUBCHEM_ISOTOPIC_ATOM_COUNT>
0

>  <PUBCHEM_COMPONENT_COUNT>
1

>  <PUBCHEM_CACTVS_TAUTO_COUNT>
1

>  <PUBCHEM_CONFORMER_ID>
000179DF00000001

>  <PUBCHEM_MMFF94_ENERGY>
20.9886

>  <PUBCHEM_FEATURE_SELFOVERLAP>
50.892

>  <PUBCHEM_SHAPE_FINGERPRINT>
11471102 22 18113907017704346890
11640471 11 17845098359332862833
12403259 327 15647322104417206741
12491281 212 18263649618382218608
13140716 1 18189606327898569578
13618510 140 18409452526420472100
13764800 53 18048323532925062602
14787075 74 18124315167178597895
15490181 8 18412833503275010278
15775835 57 18201723929178119937
16945 1 18409454652334331470
192875 21 18339062822754813833
20510252 161 17617664697134019442
21524375 3 18272090525808676422
21665062 11 17834692495224876801
22094290 62 18410011057116016980
23419403 2 14064036600601634441
23557571 272 16485554645227557526
2748010 2 18192158298407538726
305870 269 18338518525844391474
4175511 71 18193564372126828886
474 4 18409165523688807169
526903 126 17838055166860279408
537710 114 18202278130768364809
63268167 104 18338793420873123914
6333272 397 18409730685624180515
7364860 26 18057606464616908766
74978 22 18337957904190356830
7832392 63 17908425753689332281

>  <PUBCHEM_SHAPE_MULTIPOLES>
313.51
5.41
2.92
1.01
0.7
0.2
-0.2
3.22
0.26
-1.3
0
0.39
0.19
-0.91

>  <PUBCHEM_SHAPE_SELFOVERLAP>
660.978

>  <PUBCHEM_SHAPE_VOLUME>
181.1

>  <PUBCHEM_COORDINATE_TYPE>
2
5
10

$$$$
96735
 OpenBabel12092211543D

 27 28  0  0  1  0  0  0  0  0999 V2000
    2.8050    3.0955   -0.5916 Br  0  0  0  0  0  0  0  0  0  0  0  0
    0.3143   -0.1150   -2.5423 O   0  0  0  0  0  0  0  0  0  0  0  0
   -0.8600    0.4160   -4.4159 O   0  0  0  0  0  0  0  0  0  0  0  0
    0.9914   -2.5586    0.3446 N   0  0  0  0  0  0  0  0  0  0  0  0
   -1.8133   -2.2718   -3.0277 N   0  0  0  0  0  0  0  0  0  0  0  0
   -0.5449   -1.2179   -0.5323 C   0  0  0  0  0  0  0  0  0  0  0  0
   -1.8190   -0.7222   -1.0920 C   0  0  0  0  0  0  0  0  0  0  0  0
    0.6466   -0.4639   -0.3410 C   0  0  0  0  0  0  0  0  0  0  0  0
   -1.9253   -0.8671   -2.6302 C   0  0  1  0  0  0  0  0  0  0  0  0
    1.5947   -1.3284    0.2104 C   0  0  0  0  0  0  0  0  0  0  0  0
   -0.3016   -2.5018   -0.1016 C   0  0  0  0  0  0  0  0  0  0  0  0
    1.0106    0.8754   -0.5845 C   0  0  0  0  0  0  0  0  0  0  0  0
    2.8938   -0.9191    0.5315 C   0  0  0  0  0  0  0  0  0  0  0  0
    2.3066    1.2990   -0.2683 C   0  0  0  0  0  0  0  0  0  0  0  0
   -0.7980   -0.1264   -3.3217 C   0  0  0  0  0  0  0  0  0  0  0  0
    3.2321    0.4139    0.2811 C   0  0  0  0  0  0  0  0  0  0  0  0
   -2.6546   -1.2508   -0.6134 H   0  0  0  0  0  0  0  0  0  0  0  0
   -1.9428    0.3359   -0.8236 H   0  0  0  0  0  0  0  0  0  0  0  0
   -2.8864   -0.4809   -2.9901 H   0  0  0  0  0  0  0  0  0  0  0  0
   -0.9312   -3.3803   -0.0712 H   0  0  0  0  0  0  0  0  0  0  0  0
    1.4392   -3.3838    0.7188 H   0  0  0  0  0  0  0  0  0  0  0  0
    0.2931    1.5661   -1.0187 H   0  0  0  0  0  0  0  0  0  0  0  0
    3.6149   -1.6075    0.9592 H   0  0  0  0  0  0  0  0  0  0  0  0
   -1.9760   -2.3574   -4.0306 H   0  0  0  0  0  0  0  0  0  0  0  0
   -2.5484   -2.8133   -2.5741 H   0  0  0  0  0  0  0  0  0  0  0  0
    4.2384    0.7476    0.5253 H   0  0  0  0  0  0  0  0  0  0  0  0
    1.0549    0.3659   -2.9693 H   0  0  0  0  0  0  0  0  0  0  0  0
  1 14  1  0  0  0  0
  2 15  1  0  0  0  0
  2 27  1  0  0  0  0
  3 15  2  0  0  0  0
  4 10  1  0  0  0  0
  4 11  1  0  0  0  0
  4 21  1  0  0  0  0
  5  9  1  0  0  0  0
  5 24  1  0  0  0  0
  5 25  1  0  0  0  0
  6  7  1  0  0  0  0
  6  8  1  0  0  0  0
  6 11  2  0  0  0  0
  7  9  1  0  0  0  0
  7 17  1  0  0  0  0
  7 18  1  0  0  0  0
  8 10  2  0  0  0  0
  8 12  1  0  0  0  0
  9 15  1  0  0  0  0
  9 19  1  6  0  0  0
 10 13  1  0  0  0  0
 11 20  1  0  0  0  0
 12 14  2  0  0  0  0
 12 22  1  0  0  0  0
 13 16  2  0  0  0  0
 13 23  1  0  0  0  0
 14 16  1  0  0  0  0
 16 26  1  0  0  0  0
M  END
>  <PUBCHEM_COMPOUND_CID>
96735

>  <PUBCHEM_CONFORMER_RMSD>
0.6

>  <PUBCHEM_CONFORMER_DIVERSEORDER>
1
21
23
27
7
6
17
16
25
18
8
20
15
13
19
3
26
9
22
14
12
11
4
5
10
2
24

>  <PUBCHEM_MMFF94_PARTIAL_CHARGES>
23
1 -0.11
10 -0.15
11 -0.3
12 -0.15
13 -0.15
14 0.11
15 0.66
16 -0.15
2 -0.65
20 0.15
21 0.27
22 0.15
23 0.15
24 0.36
25 0.36
26 0.15
27 0.5
3 -0.57
4 0.03
5 -0.99
6 -0.18
7 0.18
9 0.33

>  <PUBCHEM_EFFECTIVE_ROTOR_COUNT>
3

>  <PUBCHEM_PHARMACOPHORE_FEATURES>
10
1 1 hydrophobe
1 2 acceptor
1 3 acceptor
1 4 cation
1 4 donor
1 5 cation
1 5 donor
3 2 3 15 anion
5 4 6 8 10 11 rings
6 8 10 12 13 14 16 rings

>  <PUBCHEM_HEAVY_ATOM_COUNT>
16

>  <PUBCHEM_ATOM_DEF_STEREO_COUNT>
0

>  <PUBCHEM_ATOM_UDEF_STEREO_COUNT>
1

>  <PUBCHEM_BOND_DEF_STEREO_COUNT>
0

>  <PUBCHEM_BOND_UDEF_STEREO_COUNT>
0

>  <PUBCHEM_ISOTOPIC_ATOM_COUNT>
0

>  <PUBCHEM_COMPONENT_COUNT>
1

>  <PUBCHEM_CACTVS_TAUTO_COUNT>
1

>  <PUBCHEM_CONFORMER_ID>
000179DF00000001

>  <PUBCHEM_MMFF94_ENERGY>
20.9886

>  <PUBCHEM_FEATURE_SELFOVERLAP>
50.892

>  <PUBCHEM_SHAPE_FINGERPRINT>
11471102 22 18113907017704346890
11640471 11 17845098359332862833
12403259 327 15647322104417206741
12491281 212 18263649618382218608
13140716 1 18189606327898569578
13618510 140 18409452526420472100
13764800 53 18048323532925062602
14787075 74 18124315167178597895
15490181 8 18412833503275010278
15775835 57 18201723929178119937
16945 1 18409454652334331470
192875 21 18339062822754813833
20510252 161 17617664697134019442
21524375 3 18272090525808676422
21665062 11 17834692495224876801
22094290 62 18410011057116016980
23419403 2 14064036600601634441
23557571 272 16485554645227557526
2748010 2 18192158298407538726
305870 269 18338518525844391474
4175511 71 18193564372126828886
474 4 18409165523688807169
526903 126 17838055166860279408
537710 114 18202278130768364809
63268167 104 18338793420873123914
6333272 397 18409730685624180515
7364860 26 18057606464616908766
74978 22 18337957904190356830
7832392 63 17908425753689332281

>  <PUBCHEM_SHAPE_MULTIPOLES>
313.51
5.41
2.92
1.01
0.7
0.2
-0.2
3.22
0.26
-1.3
0
0.39
0.19
-0.91

>  <PUBCHEM_SHAPE_SELFOVERLAP>
660.978

>  <PUBCHEM_SHAPE_VOLUME>
181.1

>  <PUBCHEM_COORDINATE_TYPE>
2
5
10

$$$$
96735
 OpenBabel12092211543D

 27 28  0  0  1  0  0  0  0  0999 V2000
    2.8050    3.0955   -0.5916 Br  0  0  0  0  0  0  0  0  0  0  0  0
   -1.3004    2.1482   -2.3703 O   0  0  0  0  0  0  0  0  0  0  0  0
    0.4991    0.8446   -2.8540 O   0  0  0  0  0  0  0  0  0  0  0  0
    0.9914   -2.5586    0.3446 N   0  0  0  0  0  0  0  0  0  0  0  0
   -1.2199   -1.2190   -3.4462 N   0  0  0  0  0  0  0  0  0  0  0  0
   -0.5449   -1.2179   -0.5323 C   0  0  0  0  0  0  0  0  0  0  0  0
   -1.8190   -0.7222   -1.0920 C   0  0  0  0  0  0  0  0  0  0  0  0
    0.6466   -0.4639   -0.3410 C   0  0  0  0  0  0  0  0  0  0  0  0
   -1.6979   -0.1764   -2.5362 C   0  0  1  0  0  0  0  0  0  0  0  0
    1.5947   -1.3284    0.2104 C   0  0  0  0  0  0  0  0  0  0  0  0
   -0.3016   -2.5018   -0.1016 C   0  0  0  0  0  0  0  0  0  0  0  0
    1.0106    0.8754   -0.5845 C   0  0  0  0  0  0  0  0  0  0  0  0
    2.8938   -0.9191    0.5315 C   0  0  0  0  0  0  0  0  0  0  0  0
    2.3066    1.2990   -0.2683 C   0  0  0  0  0  0  0  0  0  0  0  0
   -0.6926    0.9560   -2.6031 C   0  0  0  0  0  0  0  0  0  0  0  0
    3.2321    0.4139    0.2811 C   0  0  0  0  0  0  0  0  0  0  0  0
   -2.5647   -1.5284   -1.0640 H   0  0  0  0  0  0  0  0  0  0  0  0
   -2.2133    0.0712   -0.4423 H   0  0  0  0  0  0  0  0  0  0  0  0
   -2.6695    0.1805   -2.8981 H   0  0  0  0  0  0  0  0  0  0  0  0
   -0.9312   -3.3803   -0.0712 H   0  0  0  0  0  0  0  0  0  0  0  0
    1.4392   -3.3838    0.7188 H   0  0  0  0  0  0  0  0  0  0  0  0
    0.2931    1.5661   -1.0187 H   0  0  0  0  0  0  0  0  0  0  0  0
    3.6149   -1.6075    0.9592 H   0  0  0  0  0  0  0  0  0  0  0  0
   -1.2331   -0.8694   -4.4039 H   0  0  0  0  0  0  0  0  0  0  0  0
   -1.8624   -2.0102   -3.4245 H   0  0  0  0  0  0  0  0  0  0  0  0
    4.2384    0.7476    0.5253 H   0  0  0  0  0  0  0  0  0  0  0  0
   -0.6674    2.8962   -2.4157 H   0  0  0  0  0  0  0  0  0  0  0  0
  1 14  1  0  0  0  0
  2 15  1  0  0  0  0
  2 27  1  0  0  0  0
  3 15  2  0  0  0  0
  4 10  1  0  0  0  0
  4 11  1  0  0  0  0
  4 21  1  0  0  0  0
  5  9  1  0  0  0  0
  5 24  1  0  0  0  0
  5 25  1  0  0  0  0
  6  7  1  0  0  0  0
  6  8  1  0  0  0  0
  6 11  2  0  0  0  0
  7  9  1  0  0  0  0
  7 17  1  0  0  0  0
  7 18  1  0  0  0  0
  8 10  2  0  0  0  0
  8 12  1  0  0  0  0
  9 15  1  0  0  0  0
  9 19  1  6  0  0  0
 10 13  1  0  0  0  0
 11 20  1  0  0  0  0
 12 14  2  0  0  0  0
 12 22  1  0  0  0  0
 13 16  2  0  0  0  0
 13 23  1  0  0  0  0
 14 16  1  0  0  0  0
 16 26  1  0  0  0  0
M  END
>  <PUBCHEM_COMPOUND_CID>
96735

>  <PUBCHEM_CONFORMER_RMSD>
0.6

>  <PUBCHEM_CONFORMER_DIVERSEORDER>
1
21
23
27
7
6
17
16
25
18
8
20
15
13
19
3
26
9
22
14
12
11
4
5
10
2
24

>  <PUBCHEM_MMFF94_PARTIAL_CHARGES>
23
1 -0.11
10 -0.15
11 -0.3
12 -0.15
13 -0.15
14 0.11
15 0.66
16 -0.15
2 -0.65
20 0.15
21 0.27
22 0.15
23 0.15
24 0.36
25 0.36
26 0.15
27 0.5
3 -0.57
4 0.03
5 -0.99
6 -0.18
7 0.18
9 0.33

>  <PUBCHEM_EFFECTIVE_ROTOR_COUNT>
3

>  <PUBCHEM_PHARMACOPHORE_FEATURES>
10
1 1 hydrophobe
1 2 acceptor
1 3 acceptor
1 4 cation
1 4 donor
1 5 cation
1 5 donor
3 2 3 15 anion
5 4 6 8 10 11 rings
6 8 10 12 13 14 16 rings

>  <PUBCHEM_HEAVY_ATOM_COUNT>
16

>  <PUBCHEM_ATOM_DEF_STEREO_COUNT>
0

>  <PUBCHEM_ATOM_UDEF_STEREO_COUNT>
1

>  <PUBCHEM_BOND_DEF_STEREO_COUNT>
0

>  <PUBCHEM_BOND_UDEF_STEREO_COUNT>
0

>  <PUBCHEM_ISOTOPIC_ATOM_COUNT>
0

>  <PUBCHEM_COMPONENT_COUNT>
1

>  <PUBCHEM_CACTVS_TAUTO_COUNT>
1

>  <PUBCHEM_CONFORMER_ID>
000179DF00000001

>  <PUBCHEM_MMFF94_ENERGY>
20.9886

>  <PUBCHEM_FEATURE_SELFOVERLAP>
50.892

>  <PUBCHEM_SHAPE_FINGERPRINT>
11471102 22 18113907017704346890
11640471 11 17845098359332862833
12403259 327 15647322104417206741
12491281 212 18263649618382218608
13140716 1 18189606327898569578
13618510 140 18409452526420472100
13764800 53 18048323532925062602
14787075 74 18124315167178597895
15490181 8 18412833503275010278
15775835 57 18201723929178119937
16945 1 18409454652334331470
192875 21 18339062822754813833
20510252 161 17617664697134019442
21524375 3 18272090525808676422
21665062 11 17834692495224876801
22094290 62 18410011057116016980
23419403 2 14064036600601634441
23557571 272 16485554645227557526
2748010 2 18192158298407538726
305870 269 18338518525844391474
4175511 71 18193564372126828886
474 4 18409165523688807169
526903 126 17838055166860279408
537710 114 18202278130768364809
63268167 104 18338793420873123914
6333272 397 18409730685624180515
7364860 26 18057606464616908766
74978 22 18337957904190356830
7832392 63 17908425753689332281

>  <PUBCHEM_SHAPE_MULTIPOLES>
313.51
5.41
2.92
1.01
0.7
0.2
-0.2
3.22
0.26
-1.3
0
0.39
0.19
-0.91

>  <PUBCHEM_SHAPE_SELFOVERLAP>
660.978

>  <PUBCHEM_SHAPE_VOLUME>
181.1

>  <PUBCHEM_COORDINATE_TYPE>
2
5
10

$$$$
96735
 OpenBabel12092211543D

 27 28  0  0  1  0  0  0  0  0999 V2000
    2.8050    3.0955   -0.5916 Br  0  0  0  0  0  0  0  0  0  0  0  0
   -0.2414    2.2763   -2.4599 O   0  0  0  0  0  0  0  0  0  0  0  0
   -0.4297    0.2372   -3.4487 O   0  0  0  0  0  0  0  0  0  0  0  0
    0.9914   -2.5586    0.3446 N   0  0  0  0  0  0  0  0  0  0  0  0
   -3.0803    1.1927   -2.0355 N   0  0  0  0  0  0  0  0  0  0  0  0
   -0.5449   -1.2179   -0.5323 C   0  0  0  0  0  0  0  0  0  0  0  0
   -1.8190   -0.7222   -1.0920 C   0  0  0  0  0  0  0  0  0  0  0  0
    0.6466   -0.4639   -0.3410 C   0  0  0  0  0  0  0  0  0  0  0  0
   -1.7877    0.7741   -1.4897 C   0  0  1  0  0  0  0  0  0  0  0  0
    1.5947   -1.3284    0.2104 C   0  0  0  0  0  0  0  0  0  0  0  0
   -0.3016   -2.5018   -0.1016 C   0  0  0  0  0  0  0  0  0  0  0  0
    1.0106    0.8754   -0.5845 C   0  0  0  0  0  0  0  0  0  0  0  0
    2.8938   -0.9191    0.5315 C   0  0  0  0  0  0  0  0  0  0  0  0
    2.3066    1.2990   -0.2683 C   0  0  0  0  0  0  0  0  0  0  0  0
   -0.7556    1.0241   -2.5712 C   0  0  0  0  0  0  0  0  0  0  0  0
    3.2321    0.4139    0.2811 C   0  0  0  0  0  0  0  0  0  0  0  0
   -2.0915   -1.3301   -1.9655 H   0  0  0  0  0  0  0  0  0  0  0  0
   -2.6206   -0.8797   -0.3574 H   0  0  0  0  0  0  0  0  0  0  0  0
   -1.5596    1.4015   -0.6198 H   0  0  0  0  0  0  0  0  0  0  0  0
   -0.9312   -3.3803   -0.0712 H   0  0  0  0  0  0  0  0  0  0  0  0
    1.4392   -3.3838    0.7188 H   0  0  0  0  0  0  0  0  0  0  0  0
    0.2931    1.5661   -1.0187 H   0  0  0  0  0  0  0  0  0  0  0  0
    3.6149   -1.6075    0.9592 H   0  0  0  0  0  0  0  0  0  0  0  0
   -3.0700    2.1979   -2.2063 H   0  0  0  0  0  0  0  0  0  0  0  0
   -3.8106    1.0305   -1.3429 H   0  0  0  0  0  0  0  0  0  0  0  0
    4.2384    0.7476    0.5253 H   0  0  0  0  0  0  0  0  0  0  0  0
    0.4249    2.4611   -3.1556 H   0  0  0  0  0  0  0  0  0  0  0  0
  1 14  1  0  0  0  0
  2 15  1  0  0  0  0
  2 27  1  0  0  0  0
  3 15  2  0  0  0  0
  4 10  1  0  0  0  0
  4 11  1  0  0  0  0
  4 21  1  0  0  0  0
  5  9  1  0  0  0  0
  5 24  1  0  0  0  0
  5 25  1  0  0  0  0
  6  7  1  0  0  0  0
  6  8  1  0  0  0  0
  6 11  2  0  0  0  0
  7  9  1  0  0  0  0
  7 17  1  0  0  0  0
  7 18  1  0  0  0  0
  8 10  2  0  0  0  0
  8 12  1  0  0  0  0
  9 15  1  0  0  0  0
  9 19  1  1  0  0  0
 10 13  1  0  0  0  0
 11 20  1  0  0  0  0
 12 14  2  0  0  0  0
 12 22  1  0  0  0  0
 13 16  2  0  0  0  0
 13 23  1  0  0  0  0
 14 16  1  0  0  0  0
 16 26  1  0  0  0  0
M  END
>  <PUBCHEM_COMPOUND_CID>
96735

>  <PUBCHEM_CONFORMER_RMSD>
0.6

>  <PUBCHEM_CONFORMER_DIVERSEORDER>
1
21
23
27
7
6
17
16
25
18
8
20
15
13
19
3
26
9
22
14
12
11
4
5
10
2
24

>  <PUBCHEM_MMFF94_PARTIAL_CHARGES>
23
1 -0.11
10 -0.15
11 -0.3
12 -0.15
13 -0.15
14 0.11
15 0.66
16 -0.15
2 -0.65
20 0.15
21 0.27
22 0.15
23 0.15
24 0.36
25 0.36
26 0.15
27 0.5
3 -0.57
4 0.03
5 -0.99
6 -0.18
7 0.18
9 0.33

>  <PUBCHEM_EFFECTIVE_ROTOR_COUNT>
3

>  <PUBCHEM_PHARMACOPHORE_FEATURES>
10
1 1 hydrophobe
1 2 acceptor
1 3 acceptor
1 4 cation
1 4 donor
1 5 cation
1 5 donor
3 2 3 15 anion
5 4 6 8 10 11 rings
6 8 10 12 13 14 16 rings

>  <PUBCHEM_HEAVY_ATOM_COUNT>
16

>  <PUBCHEM_ATOM_DEF_STEREO_COUNT>
0

>  <PUBCHEM_ATOM_UDEF_STEREO_COUNT>
1

>  <PUBCHEM_BOND_DEF_STEREO_COUNT>
0

>  <PUBCHEM_BOND_UDEF_STEREO_COUNT>
0

>  <PUBCHEM_ISOTOPIC_ATOM_COUNT>
0

>  <PUBCHEM_COMPONENT_COUNT>
1

>  <PUBCHEM_CACTVS_TAUTO_COUNT>
1

>  <PUBCHEM_CONFORMER_ID>
000179DF00000001

>  <PUBCHEM_MMFF94_ENERGY>
20.9886

>  <PUBCHEM_FEATURE_SELFOVERLAP>
50.892

>  <PUBCHEM_SHAPE_FINGERPRINT>
11471102 22 18113907017704346890
11640471 11 17845098359332862833
12403259 327 15647322104417206741
12491281 212 18263649618382218608
13140716 1 18189606327898569578
13618510 140 18409452526420472100
13764800 53 18048323532925062602
14787075 74 18124315167178597895
15490181 8 18412833503275010278
15775835 57 18201723929178119937
16945 1 18409454652334331470
192875 21 18339062822754813833
20510252 161 17617664697134019442
21524375 3 18272090525808676422
21665062 11 17834692495224876801
22094290 62 18410011057116016980
23419403 2 14064036600601634441
23557571 272 16485554645227557526
2748010 2 18192158298407538726
305870 269 18338518525844391474
4175511 71 18193564372126828886
474 4 18409165523688807169
526903 126 17838055166860279408
537710 114 18202278130768364809
63268167 104 18338793420873123914
6333272 397 18409730685624180515
7364860 26 18057606464616908766
74978 22 18337957904190356830
7832392 63 17908425753689332281

>  <PUBCHEM_SHAPE_MULTIPOLES>
313.51
5.41
2.92
1.01
0.7
0.2
-0.2
3.22
0.26
-1.3
0
0.39
0.19
-0.91

>  <PUBCHEM_SHAPE_SELFOVERLAP>
660.978

>  <PUBCHEM_SHAPE_VOLUME>
181.1

>  <PUBCHEM_COORDINATE_TYPE>
2
5
10

$$$$
96735
 OpenBabel12092211543D

 27 28  0  0  1  0  0  0  0  0999 V2000
    2.8050    3.0955   -0.5916 Br  0  0  0  0  0  0  0  0  0  0  0  0
    0.5483    0.4770   -2.8780 O   0  0  0  0  0  0  0  0  0  0  0  0
   -0.9316    2.1406   -2.4155 O   0  0  0  0  0  0  0  0  0  0  0  0
    0.9914   -2.5586    0.3446 N   0  0  0  0  0  0  0  0  0  0  0  0
   -1.2199   -1.2190   -3.4462 N   0  0  0  0  0  0  0  0  0  0  0  0
   -0.5449   -1.2179   -0.5323 C   0  0  0  0  0  0  0  0  0  0  0  0
   -1.8190   -0.7222   -1.0920 C   0  0  0  0  0  0  0  0  0  0  0  0
    0.6466   -0.4639   -0.3410 C   0  0  0  0  0  0  0  0  0  0  0  0
   -1.6979   -0.1764   -2.5362 C   0  0  1  0  0  0  0  0  0  0  0  0
    1.5947   -1.3284    0.2104 C   0  0  0  0  0  0  0  0  0  0  0  0
   -0.3016   -2.5018   -0.1016 C   0  0  0  0  0  0  0  0  0  0  0  0
    1.0106    0.8754   -0.5845 C   0  0  0  0  0  0  0  0  0  0  0  0
    2.8938   -0.9191    0.5315 C   0  0  0  0  0  0  0  0  0  0  0  0
    2.3066    1.2990   -0.2683 C   0  0  0  0  0  0  0  0  0  0  0  0
   -0.6926    0.9560   -2.6031 C   0  0  0  0  0  0  0  0  0  0  0  0
    3.2321    0.4139    0.2811 C   0  0  0  0  0  0  0  0  0  0  0  0
   -2.5647   -1.5284   -1.0640 H   0  0  0  0  0  0  0  0  0  0  0  0
   -2.2133    0.0712   -0.4423 H   0  0  0  0  0  0  0  0  0  0  0  0
   -2.6695    0.1805   -2.8981 H   0  0  0  0  0  0  0  0  0  0  0  0
   -0.9312   -3.3803   -0.0712 H   0  0  0  0  0  0  0  0  0  0  0  0
    1.4392   -3.3838    0.7188 H   0  0  0  0  0  0  0  0  0  0  0  0
    0.2931    1.5661   -1.0187 H   0  0  0  0  0  0  0  0  0  0  0  0
    3.6149   -1.6075    0.9592 H   0  0  0  0  0  0  0  0  0  0  0  0
   -1.2331   -0.8694   -4.4039 H   0  0  0  0  0  0  0  0  0  0  0  0
   -1.8624   -2.0102   -3.4245 H   0  0  0  0  0  0  0  0  0  0  0  0
    4.2384    0.7476    0.5253 H   0  0  0  0  0  0  0  0  0  0  0  0
    1.2162    1.1942   -2.9192 H   0  0  0  0  0  0  0  0  0  0  0  0
  1 14  1  0  0  0  0
  2 15  1  0  0  0  0
  2 27  1  0  0  0  0
  3 15  2  0  0  0  0
  4 10  1  0  0  0  0
  4 11  1  0  0  0  0
  4 21  1  0  0  0  0
  5  9  1  0  0  0  0
  5 24  1  0  0  0  0
  5 25  1  0  0  0  0
  6  7  1  0  0  0  0
  6  8  1  0  0  0  0
  6 11  2  0  0  0  0
  7  9  1  0  0  0  0
  7 17  1  0  0  0  0
  7 18  1  0  0  0  0
  8 10  2  0  0  0  0
  8 12  1  0  0  0  0
  9 15  1  0  0  0  0
  9 19  1  6  0  0  0
 10 13  1  0  0  0  0
 11 20  1  0  0  0  0
 12 14  2  0  0  0  0
 12 22  1  0  0  0  0
 13 16  2  0  0  0  0
 13 23  1  0  0  0  0
 14 16  1  0  0  0  0
 16 26  1  0  0  0  0
M  END
>  <PUBCHEM_COMPOUND_CID>
96735

>  <PUBCHEM_CONFORMER_RMSD>
0.6

>  <PUBCHEM_CONFORMER_DIVERSEORDER>
1
21
23
27
7
6
17
16
25
18
8
20
15
13
19
3
26
9
22
14
12
11
4
5
10
2
24

>  <PUBCHEM_MMFF94_PARTIAL_CHARGES>
23
1 -0.11
10 -0.15
11 -0.3
12 -0.15
13 -0.15
14 0.11
15 0.66
16 -0.15
2 -0.65
20 0.15
21 0.27
22 0.15
23 0.15
24 0.36
25 0.36
26 0.15
27 0.5
3 -0.57
4 0.03
5 -0.99
6 -0.18
7 0.18
9 0.33

>  <PUBCHEM_EFFECTIVE_ROTOR_COUNT>
3

>  <PUBCHEM_PHARMACOPHORE_FEATURES>
10
1 1 hydrophobe
1 2 acceptor
1 3 acceptor
1 4 cation
1 4 donor
1 5 cation
1 5 donor
3 2 3 15 anion
5 4 6 8 10 11 rings
6 8 10 12 13 14 16 rings

>  <PUBCHEM_HEAVY_ATOM_COUNT>
16

>  <PUBCHEM_ATOM_DEF_STEREO_COUNT>
0

>  <PUBCHEM_ATOM_UDEF_STEREO_COUNT>
1

>  <PUBCHEM_BOND_DEF_STEREO_COUNT>
0

>  <PUBCHEM_BOND_UDEF_STEREO_COUNT>
0

>  <PUBCHEM_ISOTOPIC_ATOM_COUNT>
0

>  <PUBCHEM_COMPONENT_COUNT>
1

>  <PUBCHEM_CACTVS_TAUTO_COUNT>
1

>  <PUBCHEM_CONFORMER_ID>
000179DF00000001

>  <PUBCHEM_MMFF94_ENERGY>
20.9886

>  <PUBCHEM_FEATURE_SELFOVERLAP>
50.892

>  <PUBCHEM_SHAPE_FINGERPRINT>
11471102 22 18113907017704346890
11640471 11 17845098359332862833
12403259 327 15647322104417206741
12491281 212 18263649618382218608
13140716 1 18189606327898569578
13618510 140 18409452526420472100
13764800 53 18048323532925062602
14787075 74 18124315167178597895
15490181 8 18412833503275010278
15775835 57 18201723929178119937
16945 1 18409454652334331470
192875 21 18339062822754813833
20510252 161 17617664697134019442
21524375 3 18272090525808676422
21665062 11 17834692495224876801
22094290 62 18410011057116016980
23419403 2 14064036600601634441
23557571 272 16485554645227557526
2748010 2 18192158298407538726
305870 269 18338518525844391474
4175511 71 18193564372126828886
474 4 18409165523688807169
526903 126 17838055166860279408
537710 114 18202278130768364809
63268167 104 18338793420873123914
6333272 397 18409730685624180515
7364860 26 18057606464616908766
74978 22 18337957904190356830
7832392 63 17908425753689332281

>  <PUBCHEM_SHAPE_MULTIPOLES>
313.51
5.41
2.92
1.01
0.7
0.2
-0.2
3.22
0.26
-1.3
0
0.39
0.19
-0.91

>  <PUBCHEM_SHAPE_SELFOVERLAP>
660.978

>  <PUBCHEM_SHAPE_VOLUME>
181.1

>  <PUBCHEM_COORDINATE_TYPE>
2
5
10

$$$$
96735
 OpenBabel12092211543D

 27 28  0  0  1  0  0  0  0  0999 V2000
    2.8050    3.0955   -0.5916 Br  0  0  0  0  0  0  0  0  0  0  0  0
   -1.8828   -3.9171   -1.2355 O   0  0  0  0  0  0  0  0  0  0  0  0
   -2.6093   -3.0827   -3.2223 O   0  0  0  0  0  0  0  0  0  0  0  0
    0.9914   -2.5586    0.3446 N   0  0  0  0  0  0  0  0  0  0  0  0
   -3.2355   -2.3238    0.1636 N   0  0  0  0  0  0  0  0  0  0  0  0
   -0.5449   -1.2179   -0.5323 C   0  0  0  0  0  0  0  0  0  0  0  0
   -1.8190   -0.7222   -1.0920 C   0  0  0  0  0  0  0  0  0  0  0  0
    0.6466   -0.4639   -0.3410 C   0  0  0  0  0  0  0  0  0  0  0  0
   -2.9298   -1.7985   -1.1685 C   0  0  1  0  0  0  0  0  0  0  0  0
    1.5947   -1.3284    0.2104 C   0  0  0  0  0  0  0  0  0  0  0  0
   -0.3016   -2.5018   -0.1016 C   0  0  0  0  0  0  0  0  0  0  0  0
    1.0106    0.8754   -0.5845 C   0  0  0  0  0  0  0  0  0  0  0  0
    2.8938   -0.9191    0.5315 C   0  0  0  0  0  0  0  0  0  0  0  0
    2.3066    1.2990   -0.2683 C   0  0  0  0  0  0  0  0  0  0  0  0
   -2.4830   -2.9770   -2.0106 C   0  0  0  0  0  0  0  0  0  0  0  0
    3.2321    0.4139    0.2811 C   0  0  0  0  0  0  0  0  0  0  0  0
   -2.1709    0.1287   -0.4928 H   0  0  0  0  0  0  0  0  0  0  0  0
   -1.6387   -0.3230   -2.0995 H   0  0  0  0  0  0  0  0  0  0  0  0
   -3.8486   -1.3774   -1.5939 H   0  0  0  0  0  0  0  0  0  0  0  0
   -0.9312   -3.3803   -0.0712 H   0  0  0  0  0  0  0  0  0  0  0  0
    1.4392   -3.3838    0.7188 H   0  0  0  0  0  0  0  0  0  0  0  0
    0.2931    1.5661   -1.0187 H   0  0  0  0  0  0  0  0  0  0  0  0
    3.6149   -1.6075    0.9592 H   0  0  0  0  0  0  0  0  0  0  0  0
   -4.0284   -2.9622    0.1058 H   0  0  0  0  0  0  0  0  0  0  0  0
   -3.5303   -1.5601    0.7710 H   0  0  0  0  0  0  0  0  0  0  0  0
    4.2384    0.7476    0.5253 H   0  0  0  0  0  0  0  0  0  0  0  0
   -1.5797   -4.6865   -1.7630 H   0  0  0  0  0  0  0  0  0  0  0  0
  1 14  1  0  0  0  0
  2 15  1  0  0  0  0
  2 27  1  0  0  0  0
  3 15  2  0  0  0  0
  4 10  1  0  0  0  0
  4 11  1  0  0  0  0
  4 21  1  0  0  0  0
  5  9  1  0  0  0  0
  5 24  1  0  0  0  0
  5 25  1  0  0  0  0
  6  7  1  0  0  0  0
  6  8  1  0  0  0  0
  6 11  2  0  0  0  0
  7  9  1  0  0  0  0
  7 17  1  0  0  0  0
  7 18  1  0  0  0  0
  8 10  2  0  0  0  0
  8 12  1  0  0  0  0
  9 15  1  0  0  0  0
  9 19  1  6  0  0  0
 10 13  1  0  0  0  0
 11 20  1  0  0  0  0
 12 14  2  0  0  0  0
 12 22  1  0  0  0  0
 13 16  2  0  0  0  0
 13 23  1  0  0  0  0
 14 16  1  0  0  0  0
 16 26  1  0  0  0  0
M  END
>  <PUBCHEM_COMPOUND_CID>
96735

>  <PUBCHEM_CONFORMER_RMSD>
0.6

>  <PUBCHEM_CONFORMER_DIVERSEORDER>
1
21
23
27
7
6
17
16
25
18
8
20
15
13
19
3
26
9
22
14
12
11
4
5
10
2
24

>  <PUBCHEM_MMFF94_PARTIAL_CHARGES>
23
1 -0.11
10 -0.15
11 -0.3
12 -0.15
13 -0.15
14 0.11
15 0.66
16 -0.15
2 -0.65
20 0.15
21 0.27
22 0.15
23 0.15
24 0.36
25 0.36
26 0.15
27 0.5
3 -0.57
4 0.03
5 -0.99
6 -0.18
7 0.18
9 0.33

>  <PUBCHEM_EFFECTIVE_ROTOR_COUNT>
3

>  <PUBCHEM_PHARMACOPHORE_FEATURES>
10
1 1 hydrophobe
1 2 acceptor
1 3 acceptor
1 4 cation
1 4 donor
1 5 cation
1 5 donor
3 2 3 15 anion
5 4 6 8 10 11 rings
6 8 10 12 13 14 16 rings

>  <PUBCHEM_HEAVY_ATOM_COUNT>
16

>  <PUBCHEM_ATOM_DEF_STEREO_COUNT>
0

>  <PUBCHEM_ATOM_UDEF_STEREO_COUNT>
1

>  <PUBCHEM_BOND_DEF_STEREO_COUNT>
0

>  <PUBCHEM_BOND_UDEF_STEREO_COUNT>
0

>  <PUBCHEM_ISOTOPIC_ATOM_COUNT>
0

>  <PUBCHEM_COMPONENT_COUNT>
1

>  <PUBCHEM_CACTVS_TAUTO_COUNT>
1

>  <PUBCHEM_CONFORMER_ID>
000179DF00000001

>  <PUBCHEM_MMFF94_ENERGY>
20.9886

>  <PUBCHEM_FEATURE_SELFOVERLAP>
50.892

>  <PUBCHEM_SHAPE_FINGERPRINT>
11471102 22 18113907017704346890
11640471 11 17845098359332862833
12403259 327 15647322104417206741
12491281 212 18263649618382218608
13140716 1 18189606327898569578
13618510 140 18409452526420472100
13764800 53 18048323532925062602
14787075 74 18124315167178597895
15490181 8 18412833503275010278
15775835 57 18201723929178119937
16945 1 18409454652334331470
192875 21 18339062822754813833
20510252 161 17617664697134019442
21524375 3 18272090525808676422
21665062 11 17834692495224876801
22094290 62 18410011057116016980
23419403 2 14064036600601634441
23557571 272 16485554645227557526
2748010 2 18192158298407538726
305870 269 18338518525844391474
4175511 71 18193564372126828886
474 4 18409165523688807169
526903 126 17838055166860279408
537710 114 18202278130768364809
63268167 104 18338793420873123914
6333272 397 18409730685624180515
7364860 26 18057606464616908766
74978 22 18337957904190356830
7832392 63 17908425753689332281

>  <PUBCHEM_SHAPE_MULTIPOLES>
313.51
5.41
2.92
1.01
0.7
0.2
-0.2
3.22
0.26
-1.3
0
0.39
0.19
-0.91

>  <PUBCHEM_SHAPE_SELFOVERLAP>
660.978

>  <PUBCHEM_SHAPE_VOLUME>
181.1

>  <PUBCHEM_COORDINATE_TYPE>
2
5
10

$$$$
