9856996
  -OEChem-12092212373D

 27 28  0     1  0  0  0  0  0999 V2000
   -4.8081    1.4276   -0.1446 Br  0  0  0  0  0  0  0  0  0  0  0  0
    1.6510    1.0069   -1.7272 O   0  0  0  0  0  0  0  0  0  0  0  0
    2.5101    2.2312   -0.0232 O   0  0  0  0  0  0  0  0  0  0  0  0
   -0.9988   -2.3341   -0.5475 N   0  0  0  0  0  0  0  0  0  0  0  0
    4.2176    0.1338    0.5372 N   0  0  0  0  0  0  0  0  0  0  0  0
    0.6524   -1.1965    0.4046 C   0  0  0  0  0  0  0  0  0  0  0  0
    1.9803   -0.8386    0.9432 C   0  0  0  0  0  0  0  0  0  0  0  0
   -0.5080   -0.3730    0.3963 C   0  0  0  0  0  0  0  0  0  0  0  0
    2.9256   -0.1718   -0.0829 C   0  0  1  0  0  0  0  0  0  0  0  0
   -1.5295   -1.1104   -0.2063 C   0  0  0  0  0  0  0  0  0  0  0  0
    0.3192   -2.3955   -0.1824 C   0  0  0  0  0  0  0  0  0  0  0  0
   -0.7883    0.9330    0.8448 C   0  0  0  0  0  0  0  0  0  0  0  0
   -2.8223   -0.6050   -0.3834 C   0  0  0  0  0  0  0  0  0  0  0  0
   -2.0769    1.4517    0.6742 C   0  0  0  0  0  0  0  0  0  0  0  0
    2.3527    1.1478   -0.5721 C   0  0  0  0  0  0  0  0  0  0  0  0
   -3.0769    0.6928    0.0693 C   0  0  0  0  0  0  0  0  0  0  0  0
    2.4623   -1.7450    1.3350 H   0  0  0  0  0  0  0  0  0  0  0  0
    1.8503   -0.1747    1.8092 H   0  0  0  0  0  0  0  0  0  0  0  0
    3.0965   -0.8302   -0.9426 H   0  0  0  0  0  0  0  0  0  0  0  0
    0.9002   -3.2868   -0.3743 H   0  0  0  0  0  0  0  0  0  0  0  0
   -1.5092   -3.0787   -1.0019 H   0  0  0  0  0  0  0  0  0  0  0  0
   -0.0242    1.5380    1.3240 H   0  0  0  0  0  0  0  0  0  0  0  0
   -3.5919   -1.2071   -0.8564 H   0  0  0  0  0  0  0  0  0  0  0  0
   -2.2819    2.4605    1.0255 H   0  0  0  0  0  0  0  0  0  0  0  0
    4.8590    0.4924   -0.1695 H   0  0  0  0  0  0  0  0  0  0  0  0
    4.6370   -0.7255    0.8904 H   0  0  0  0  0  0  0  0  0  0  0  0
    1.2895    1.8628   -2.0418 H   0  0  0  0  0  0  0  0  0  0  0  0
  1 16  1  0  0  0  0
  2 15  1  0  0  0  0
  2 27  1  0  0  0  0
  3 15  2  0  0  0  0
  4 10  1  0  0  0  0
  4 11  1  0  0  0  0
  4 21  1  0  0  0  0
  5  9  1  0  0  0  0
  5 25  1  0  0  0  0
  5 26  1  0  0  0  0
  6  7  1  0  0  0  0
  6  8  1  0  0  0  0
  6 11  2  0  0  0  0
  7  9  1  0  0  0  0
  7 17  1  0  0  0  0
  7 18  1  0  0  0  0
  8 10  2  0  0  0  0
  8 12  1  0  0  0  0
  9 15  1  0  0  0  0
  9 19  1  0  0  0  0
 10 13  1  0  0  0  0
 11 20  1  0  0  0  0
 12 14  2  0  0  0  0
 12 22  1  0  0  0  0
 13 16  2  0  0  0  0
 13 23  1  0  0  0  0
 14 16  1  0  0  0  0
 14 24  1  0  0  0  0
M  END
> <PUBCHEM_COMPOUND_CID>
9856996

> <PUBCHEM_CONFORMER_RMSD>
0.6

> <PUBCHEM_CONFORMER_DIVERSEORDER>
1
17
15
19
6
11
14
16
5
9
12
13
18
7
3
2
4
8
10

> <PUBCHEM_MMFF94_PARTIAL_CHARGES>
23
1 -0.11
10 -0.15
11 -0.3
12 -0.15
13 -0.15
14 -0.15
15 0.66
16 0.11
2 -0.65
20 0.15
21 0.27
22 0.15
23 0.15
24 0.15
25 0.36
26 0.36
27 0.5
3 -0.57
4 0.03
5 -0.99
6 -0.18
7 0.18
9 0.33

> <PUBCHEM_EFFECTIVE_ROTOR_COUNT>
3

> <PUBCHEM_PHARMACOPHORE_FEATURES>
10
1 1 hydrophobe
1 2 acceptor
1 3 acceptor
1 4 cation
1 4 donor
1 5 cation
1 5 donor
3 2 3 15 anion
5 4 6 8 10 11 rings
6 8 10 12 13 14 16 rings

> <PUBCHEM_HEAVY_ATOM_COUNT>
16

> <PUBCHEM_ATOM_DEF_STEREO_COUNT>
1

> <PUBCHEM_ATOM_UDEF_STEREO_COUNT>
0

> <PUBCHEM_BOND_DEF_STEREO_COUNT>
0

> <PUBCHEM_BOND_UDEF_STEREO_COUNT>
0

> <PUBCHEM_ISOTOPIC_ATOM_COUNT>
0

> <PUBCHEM_COMPONENT_COUNT>
1

> <PUBCHEM_CACTVS_TAUTO_COUNT>
1

> <PUBCHEM_CONFORMER_ID>
009667E400000001

> <PUBCHEM_MMFF94_ENERGY>
21.0466

> <PUBCHEM_FEATURE_SELFOVERLAP>
50.894

> <PUBCHEM_SHAPE_FINGERPRINT>
11640471 11 17897169241491425364
13380535 76 18410294670965602035
13583140 156 17168139023441679835
14252887 29 11458712659804682608
15775835 57 18333737935238967004
16945 1 18336826377533705283
17134986 127 18410578378913635645
18186145 218 18272381874989339273
20645476 183 18408879646661047803
21524375 3 18335704922923093907
22094290 62 18335420158096341074
231179 274 17968936384086486621
23175994 123 15647323110040252050
23402539 116 18059846273071424276
23419403 2 16323922076747560138
23557571 272 17488738011970372966
23559900 14 17988922289224085616
2748010 2 17262138733348140635
3060560 45 18339925896348549358
474 4 18261115136595359761
4990 188 16845568691446478597
537710 114 18271523105353703161
58051976 378 18270678667485791717
7364860 26 18127413345488937191
7832392 63 18336824281853110036
9981440 41 17542499887858668280

> <PUBCHEM_SHAPE_MULTIPOLES>
313.51
6.75
2.25
0.97
3
0.6
-0.15
-3.7
-0.12
-0.27
-0.29
-0.29
-0.18
-0.56

> <PUBCHEM_SHAPE_SELFOVERLAP>
660.574

> <PUBCHEM_SHAPE_VOLUME>
181.4

> <PUBCHEM_COORDINATE_TYPE>
2
5
10

$$$$
