9856996
 OpenBabel12092211553D

 27 28  0  0  1  0  0  0  0  0999 V2000
   -4.8081    1.4276   -0.1446 Br  0  0  0  0  0  0  0  0  0  0  0  0
    5.2851    0.0806   -0.3784 O   0  0  0  0  0  0  0  0  0  0  0  0
    4.4802    0.3436    1.7248 O   0  0  0  0  0  0  0  0  0  0  0  0
   -0.9988   -2.3341   -0.5475 N   0  0  0  0  0  0  0  0  0  0  0  0
    3.1650   -1.0710   -1.2151 N   0  0  0  0  0  0  0  0  0  0  0  0
    0.6524   -1.1965    0.4046 C   0  0  0  0  0  0  0  0  0  0  0  0
    1.9803   -0.8386    0.9432 C   0  0  0  0  0  0  0  0  0  0  0  0
   -0.5080   -0.3730    0.3963 C   0  0  0  0  0  0  0  0  0  0  0  0
    2.9257   -0.1720   -0.0830 C   0  0  1  0  0  0  0  0  0  0  0  0
   -1.5295   -1.1104   -0.2063 C   0  0  0  0  0  0  0  0  0  0  0  0
    0.3192   -2.3955   -0.1824 C   0  0  0  0  0  0  0  0  0  0  0  0
   -0.7883    0.9330    0.8448 C   0  0  0  0  0  0  0  0  0  0  0  0
   -2.8223   -0.6050   -0.3834 C   0  0  0  0  0  0  0  0  0  0  0  0
   -2.0769    1.4517    0.6742 C   0  0  0  0  0  0  0  0  0  0  0  0
    4.2818    0.1201    0.5372 C   0  0  0  0  0  0  0  0  0  0  0  0
   -3.0769    0.6928    0.0693 C   0  0  0  0  0  0  0  0  0  0  0  0
    2.4622   -1.7450    1.3352 H   0  0  0  0  0  0  0  0  0  0  0  0
    1.8503   -0.1745    1.8091 H   0  0  0  0  0  0  0  0  0  0  0  0
    2.4951    0.7621   -0.4621 H   0  0  0  0  0  0  0  0  0  0  0  0
    0.9002   -3.2868   -0.3743 H   0  0  0  0  0  0  0  0  0  0  0  0
   -1.5092   -3.0787   -1.0019 H   0  0  0  0  0  0  0  0  0  0  0  0
   -0.0242    1.5380    1.3240 H   0  0  0  0  0  0  0  0  0  0  0  0
   -3.5919   -1.2071   -0.8564 H   0  0  0  0  0  0  0  0  0  0  0  0
   -2.2819    2.4605    1.0255 H   0  0  0  0  0  0  0  0  0  0  0  0
    3.7177   -0.5886   -1.9230 H   0  0  0  0  0  0  0  0  0  0  0  0
    2.2770   -1.3030   -1.6587 H   0  0  0  0  0  0  0  0  0  0  0  0
    6.1586    0.2630    0.0288 H   0  0  0  0  0  0  0  0  0  0  0  0
  1 16  1  0  0  0  0
  2 15  1  0  0  0  0
  2 27  1  0  0  0  0
  3 15  2  0  0  0  0
  4 10  1  0  0  0  0
  4 11  1  0  0  0  0
  4 21  1  0  0  0  0
  5  9  1  0  0  0  0
  5 25  1  0  0  0  0
  5 26  1  0  0  0  0
  6  7  1  0  0  0  0
  6  8  1  0  0  0  0
  6 11  2  0  0  0  0
  7  9  1  0  0  0  0
  7 17  1  0  0  0  0
  7 18  1  0  0  0  0
  8 10  2  0  0  0  0
  8 12  1  0  0  0  0
  9 15  1  0  0  0  0
  9 19  1  6  0  0  0
 10 13  1  0  0  0  0
 11 20  1  0  0  0  0
 12 14  2  0  0  0  0
 12 22  1  0  0  0  0
 13 16  2  0  0  0  0
 13 23  1  0  0  0  0
 14 16  1  0  0  0  0
 14 24  1  0  0  0  0
M  END
>  <PUBCHEM_COMPOUND_CID>
9856996

>  <PUBCHEM_CONFORMER_RMSD>
0.6

>  <PUBCHEM_CONFORMER_DIVERSEORDER>
1
17
15
19
6
11
14
16
5
9
12
13
18
7
3
2
4
8
10

>  <PUBCHEM_MMFF94_PARTIAL_CHARGES>
23
1 -0.11
10 -0.15
11 -0.3
12 -0.15
13 -0.15
14 -0.15
15 0.66
16 0.11
2 -0.65
20 0.15
21 0.27
22 0.15
23 0.15
24 0.15
25 0.36
26 0.36
27 0.5
3 -0.57
4 0.03
5 -0.99
6 -0.18
7 0.18
9 0.33

>  <PUBCHEM_EFFECTIVE_ROTOR_COUNT>
3

>  <PUBCHEM_PHARMACOPHORE_FEATURES>
10
1 1 hydrophobe
1 2 acceptor
1 3 acceptor
1 4 cation
1 4 donor
1 5 cation
1 5 donor
3 2 3 15 anion
5 4 6 8 10 11 rings
6 8 10 12 13 14 16 rings

>  <PUBCHEM_HEAVY_ATOM_COUNT>
16

>  <PUBCHEM_ATOM_DEF_STEREO_COUNT>
1

>  <PUBCHEM_ATOM_UDEF_STEREO_COUNT>
0

>  <PUBCHEM_BOND_DEF_STEREO_COUNT>
0

>  <PUBCHEM_BOND_UDEF_STEREO_COUNT>
0

>  <PUBCHEM_ISOTOPIC_ATOM_COUNT>
0

>  <PUBCHEM_COMPONENT_COUNT>
1

>  <PUBCHEM_CACTVS_TAUTO_COUNT>
1

>  <PUBCHEM_CONFORMER_ID>
009667E400000001

>  <PUBCHEM_MMFF94_ENERGY>
21.0466

>  <PUBCHEM_FEATURE_SELFOVERLAP>
50.894

>  <PUBCHEM_SHAPE_FINGERPRINT>
11640471 11 17897169241491425364
13380535 76 18410294670965602035
13583140 156 17168139023441679835
14252887 29 11458712659804682608
15775835 57 18333737935238967004
16945 1 18336826377533705283
17134986 127 18410578378913635645
18186145 218 18272381874989339273
20645476 183 18408879646661047803
21524375 3 18335704922923093907
22094290 62 18335420158096341074
231179 274 17968936384086486621
23175994 123 15647323110040252050
23402539 116 18059846273071424276
23419403 2 16323922076747560138
23557571 272 17488738011970372966
23559900 14 17988922289224085616
2748010 2 17262138733348140635
3060560 45 18339925896348549358
474 4 18261115136595359761
4990 188 16845568691446478597
537710 114 18271523105353703161
58051976 378 18270678667485791717
7364860 26 18127413345488937191
7832392 63 18336824281853110036
9981440 41 17542499887858668280

>  <PUBCHEM_SHAPE_MULTIPOLES>
313.51
6.75
2.25
0.97
3
0.6
-0.15
-3.7
-0.12
-0.27
-0.29
-0.29
-0.18
-0.56

>  <PUBCHEM_SHAPE_SELFOVERLAP>
660.574

>  <PUBCHEM_SHAPE_VOLUME>
181.4

>  <PUBCHEM_COORDINATE_TYPE>
2
5
10

$$$$
9856996
 OpenBabel12092211553D

 27 28  0  0  1  0  0  0  0  0999 V2000
   -4.8081    1.4276   -0.1446 Br  0  0  0  0  0  0  0  0  0  0  0  0
    1.5884   -3.0004    3.8874 O   0  0  0  0  0  0  0  0  0  0  0  0
    2.3891   -3.5529    1.8394 O   0  0  0  0  0  0  0  0  0  0  0  0
   -0.9988   -2.3341   -0.5475 N   0  0  0  0  0  0  0  0  0  0  0  0
    3.5219   -0.8052    2.8767 N   0  0  0  0  0  0  0  0  0  0  0  0
    0.6524   -1.1965    0.4046 C   0  0  0  0  0  0  0  0  0  0  0  0
    1.9803   -0.8386    0.9432 C   0  0  0  0  0  0  0  0  0  0  0  0
   -0.5080   -0.3730    0.3963 C   0  0  0  0  0  0  0  0  0  0  0  0
    2.1808   -1.1963    2.4342 C   0  0  1  0  0  0  0  0  0  0  0  0
   -1.5295   -1.1104   -0.2063 C   0  0  0  0  0  0  0  0  0  0  0  0
    0.3192   -2.3955   -0.1824 C   0  0  0  0  0  0  0  0  0  0  0  0
   -0.7883    0.9330    0.8448 C   0  0  0  0  0  0  0  0  0  0  0  0
   -2.8223   -0.6050   -0.3834 C   0  0  0  0  0  0  0  0  0  0  0  0
   -2.0769    1.4517    0.6742 C   0  0  0  0  0  0  0  0  0  0  0  0
    2.0683   -2.6957    2.6531 C   0  0  0  0  0  0  0  0  0  0  0  0
   -3.0769    0.6928    0.0693 C   0  0  0  0  0  0  0  0  0  0  0  0
    2.1396    0.2406    0.8113 H   0  0  0  0  0  0  0  0  0  0  0  0
    2.7572   -1.3283    0.3397 H   0  0  0  0  0  0  0  0  0  0  0  0
    1.4417   -0.6849    3.0618 H   0  0  0  0  0  0  0  0  0  0  0  0
    0.9002   -3.2868   -0.3743 H   0  0  0  0  0  0  0  0  0  0  0  0
   -1.5092   -3.0787   -1.0019 H   0  0  0  0  0  0  0  0  0  0  0  0
   -0.0242    1.5380    1.3240 H   0  0  0  0  0  0  0  0  0  0  0  0
   -3.5919   -1.2071   -0.8564 H   0  0  0  0  0  0  0  0  0  0  0  0
   -2.2819    2.4605    1.0255 H   0  0  0  0  0  0  0  0  0  0  0  0
    3.6109   -0.9666    3.8794 H   0  0  0  0  0  0  0  0  0  0  0  0
    3.6466    0.1970    2.7389 H   0  0  0  0  0  0  0  0  0  0  0  0
    1.5245   -3.9695    4.0255 H   0  0  0  0  0  0  0  0  0  0  0  0
  1 16  1  0  0  0  0
  2 15  1  0  0  0  0
  2 27  1  0  0  0  0
  3 15  2  0  0  0  0
  4 10  1  0  0  0  0
  4 11  1  0  0  0  0
  4 21  1  0  0  0  0
  5  9  1  0  0  0  0
  5 25  1  0  0  0  0
  5 26  1  0  0  0  0
  6  7  1  0  0  0  0
  6  8  1  0  0  0  0
  6 11  2  0  0  0  0
  7  9  1  0  0  0  0
  7 17  1  0  0  0  0
  7 18  1  0  0  0  0
  8 10  2  0  0  0  0
  8 12  1  0  0  0  0
  9 15  1  0  0  0  0
  9 19  1  1  0  0  0
 10 13  1  0  0  0  0
 11 20  1  0  0  0  0
 12 14  2  0  0  0  0
 12 22  1  0  0  0  0
 13 16  2  0  0  0  0
 13 23  1  0  0  0  0
 14 16  1  0  0  0  0
 14 24  1  0  0  0  0
M  END
>  <PUBCHEM_COMPOUND_CID>
9856996

>  <PUBCHEM_CONFORMER_RMSD>
0.6

>  <PUBCHEM_CONFORMER_DIVERSEORDER>
1
17
15
19
6
11
14
16
5
9
12
13
18
7
3
2
4
8
10

>  <PUBCHEM_MMFF94_PARTIAL_CHARGES>
23
1 -0.11
10 -0.15
11 -0.3
12 -0.15
13 -0.15
14 -0.15
15 0.66
16 0.11
2 -0.65
20 0.15
21 0.27
22 0.15
23 0.15
24 0.15
25 0.36
26 0.36
27 0.5
3 -0.57
4 0.03
5 -0.99
6 -0.18
7 0.18
9 0.33

>  <PUBCHEM_EFFECTIVE_ROTOR_COUNT>
3

>  <PUBCHEM_PHARMACOPHORE_FEATURES>
10
1 1 hydrophobe
1 2 acceptor
1 3 acceptor
1 4 cation
1 4 donor
1 5 cation
1 5 donor
3 2 3 15 anion
5 4 6 8 10 11 rings
6 8 10 12 13 14 16 rings

>  <PUBCHEM_HEAVY_ATOM_COUNT>
16

>  <PUBCHEM_ATOM_DEF_STEREO_COUNT>
1

>  <PUBCHEM_ATOM_UDEF_STEREO_COUNT>
0

>  <PUBCHEM_BOND_DEF_STEREO_COUNT>
0

>  <PUBCHEM_BOND_UDEF_STEREO_COUNT>
0

>  <PUBCHEM_ISOTOPIC_ATOM_COUNT>
0

>  <PUBCHEM_COMPONENT_COUNT>
1

>  <PUBCHEM_CACTVS_TAUTO_COUNT>
1

>  <PUBCHEM_CONFORMER_ID>
009667E400000001

>  <PUBCHEM_MMFF94_ENERGY>
21.0466

>  <PUBCHEM_FEATURE_SELFOVERLAP>
50.894

>  <PUBCHEM_SHAPE_FINGERPRINT>
11640471 11 17897169241491425364
13380535 76 18410294670965602035
13583140 156 17168139023441679835
14252887 29 11458712659804682608
15775835 57 18333737935238967004
16945 1 18336826377533705283
17134986 127 18410578378913635645
18186145 218 18272381874989339273
20645476 183 18408879646661047803
21524375 3 18335704922923093907
22094290 62 18335420158096341074
231179 274 17968936384086486621
23175994 123 15647323110040252050
23402539 116 18059846273071424276
23419403 2 16323922076747560138
23557571 272 17488738011970372966
23559900 14 17988922289224085616
2748010 2 17262138733348140635
3060560 45 18339925896348549358
474 4 18261115136595359761
4990 188 16845568691446478597
537710 114 18271523105353703161
58051976 378 18270678667485791717
7364860 26 18127413345488937191
7832392 63 18336824281853110036
9981440 41 17542499887858668280

>  <PUBCHEM_SHAPE_MULTIPOLES>
313.51
6.75
2.25
0.97
3
0.6
-0.15
-3.7
-0.12
-0.27
-0.29
-0.29
-0.18
-0.56

>  <PUBCHEM_SHAPE_SELFOVERLAP>
660.574

>  <PUBCHEM_SHAPE_VOLUME>
181.4

>  <PUBCHEM_COORDINATE_TYPE>
2
5
10

$$$$
9856996
 OpenBabel12092211553D

 27 28  0  0  1  0  0  0  0  0999 V2000
   -4.8081    1.4276   -0.1446 Br  0  0  0  0  0  0  0  0  0  0  0  0
    4.0311   -1.5565    3.9053 O   0  0  0  0  0  0  0  0  0  0  0  0
    4.1634    0.2231    2.5067 O   0  0  0  0  0  0  0  0  0  0  0  0
   -0.9988   -2.3341   -0.5475 N   0  0  0  0  0  0  0  0  0  0  0  0
    1.1943   -0.4987    3.2632 N   0  0  0  0  0  0  0  0  0  0  0  0
    0.6524   -1.1965    0.4046 C   0  0  0  0  0  0  0  0  0  0  0  0
    1.9803   -0.8386    0.9432 C   0  0  0  0  0  0  0  0  0  0  0  0
   -0.5080   -0.3730    0.3963 C   0  0  0  0  0  0  0  0  0  0  0  0
    2.1808   -1.1963    2.4342 C   0  0  1  0  0  0  0  0  0  0  0  0
   -1.5295   -1.1104   -0.2063 C   0  0  0  0  0  0  0  0  0  0  0  0
    0.3192   -2.3955   -0.1824 C   0  0  0  0  0  0  0  0  0  0  0  0
   -0.7883    0.9330    0.8448 C   0  0  0  0  0  0  0  0  0  0  0  0
   -2.8223   -0.6050   -0.3834 C   0  0  0  0  0  0  0  0  0  0  0  0
   -2.0769    1.4517    0.6742 C   0  0  0  0  0  0  0  0  0  0  0  0
    3.5509   -0.7537    2.9197 C   0  0  0  0  0  0  0  0  0  0  0  0
   -3.0769    0.6928    0.0693 C   0  0  0  0  0  0  0  0  0  0  0  0
    2.1396    0.2406    0.8113 H   0  0  0  0  0  0  0  0  0  0  0  0
    2.7572   -1.3283    0.3397 H   0  0  0  0  0  0  0  0  0  0  0  0
    2.0737   -2.2754    2.5952 H   0  0  0  0  0  0  0  0  0  0  0  0
    0.9002   -3.2868   -0.3743 H   0  0  0  0  0  0  0  0  0  0  0  0
   -1.5092   -3.0787   -1.0019 H   0  0  0  0  0  0  0  0  0  0  0  0
   -0.0242    1.5380    1.3240 H   0  0  0  0  0  0  0  0  0  0  0  0
   -3.5919   -1.2071   -0.8564 H   0  0  0  0  0  0  0  0  0  0  0  0
   -2.2819    2.4605    1.0255 H   0  0  0  0  0  0  0  0  0  0  0  0
    1.2812   -0.8088    4.2306 H   0  0  0  0  0  0  0  0  0  0  0  0
    0.2548   -0.7593    2.9656 H   0  0  0  0  0  0  0  0  0  0  0  0
    4.9125   -1.2620    4.2195 H   0  0  0  0  0  0  0  0  0  0  0  0
  1 16  1  0  0  0  0
  2 15  1  0  0  0  0
  2 27  1  0  0  0  0
  3 15  2  0  0  0  0
  4 10  1  0  0  0  0
  4 11  1  0  0  0  0
  4 21  1  0  0  0  0
  5  9  1  0  0  0  0
  5 25  1  0  0  0  0
  5 26  1  0  0  0  0
  6  7  1  0  0  0  0
  6  8  1  0  0  0  0
  6 11  2  0  0  0  0
  7  9  1  0  0  0  0
  7 17  1  0  0  0  0
  7 18  1  0  0  0  0
  8 10  2  0  0  0  0
  8 12  1  0  0  0  0
  9 15  1  0  0  0  0
  9 19  1  1  0  0  0
 10 13  1  0  0  0  0
 11 20  1  0  0  0  0
 12 14  2  0  0  0  0
 12 22  1  0  0  0  0
 13 16  2  0  0  0  0
 13 23  1  0  0  0  0
 14 16  1  0  0  0  0
 14 24  1  0  0  0  0
M  END
>  <PUBCHEM_COMPOUND_CID>
9856996

>  <PUBCHEM_CONFORMER_RMSD>
0.6

>  <PUBCHEM_CONFORMER_DIVERSEORDER>
1
17
15
19
6
11
14
16
5
9
12
13
18
7
3
2
4
8
10

>  <PUBCHEM_MMFF94_PARTIAL_CHARGES>
23
1 -0.11
10 -0.15
11 -0.3
12 -0.15
13 -0.15
14 -0.15
15 0.66
16 0.11
2 -0.65
20 0.15
21 0.27
22 0.15
23 0.15
24 0.15
25 0.36
26 0.36
27 0.5
3 -0.57
4 0.03
5 -0.99
6 -0.18
7 0.18
9 0.33

>  <PUBCHEM_EFFECTIVE_ROTOR_COUNT>
3

>  <PUBCHEM_PHARMACOPHORE_FEATURES>
10
1 1 hydrophobe
1 2 acceptor
1 3 acceptor
1 4 cation
1 4 donor
1 5 cation
1 5 donor
3 2 3 15 anion
5 4 6 8 10 11 rings
6 8 10 12 13 14 16 rings

>  <PUBCHEM_HEAVY_ATOM_COUNT>
16

>  <PUBCHEM_ATOM_DEF_STEREO_COUNT>
1

>  <PUBCHEM_ATOM_UDEF_STEREO_COUNT>
0

>  <PUBCHEM_BOND_DEF_STEREO_COUNT>
0

>  <PUBCHEM_BOND_UDEF_STEREO_COUNT>
0

>  <PUBCHEM_ISOTOPIC_ATOM_COUNT>
0

>  <PUBCHEM_COMPONENT_COUNT>
1

>  <PUBCHEM_CACTVS_TAUTO_COUNT>
1

>  <PUBCHEM_CONFORMER_ID>
009667E400000001

>  <PUBCHEM_MMFF94_ENERGY>
21.0466

>  <PUBCHEM_FEATURE_SELFOVERLAP>
50.894

>  <PUBCHEM_SHAPE_FINGERPRINT>
11640471 11 17897169241491425364
13380535 76 18410294670965602035
13583140 156 17168139023441679835
14252887 29 11458712659804682608
15775835 57 18333737935238967004
16945 1 18336826377533705283
17134986 127 18410578378913635645
18186145 218 18272381874989339273
20645476 183 18408879646661047803
21524375 3 18335704922923093907
22094290 62 18335420158096341074
231179 274 17968936384086486621
23175994 123 15647323110040252050
23402539 116 18059846273071424276
23419403 2 16323922076747560138
23557571 272 17488738011970372966
23559900 14 17988922289224085616
2748010 2 17262138733348140635
3060560 45 18339925896348549358
474 4 18261115136595359761
4990 188 16845568691446478597
537710 114 18271523105353703161
58051976 378 18270678667485791717
7364860 26 18127413345488937191
7832392 63 18336824281853110036
9981440 41 17542499887858668280

>  <PUBCHEM_SHAPE_MULTIPOLES>
313.51
6.75
2.25
0.97
3
0.6
-0.15
-3.7
-0.12
-0.27
-0.29
-0.29
-0.18
-0.56

>  <PUBCHEM_SHAPE_SELFOVERLAP>
660.574

>  <PUBCHEM_SHAPE_VOLUME>
181.4

>  <PUBCHEM_COORDINATE_TYPE>
2
5
10

$$$$
9856996
 OpenBabel12092211553D

 27 28  0  0  1  0  0  0  0  0999 V2000
   -4.8081    1.4276   -0.1446 Br  0  0  0  0  0  0  0  0  0  0  0  0
    4.5581   -1.3391    2.2202 O   0  0  0  0  0  0  0  0  0  0  0  0
    3.7540    0.0198    3.8473 O   0  0  0  0  0  0  0  0  0  0  0  0
   -0.9988   -2.3341   -0.5475 N   0  0  0  0  0  0  0  0  0  0  0  0
    1.1943   -0.4987    3.2632 N   0  0  0  0  0  0  0  0  0  0  0  0
    0.6524   -1.1965    0.4046 C   0  0  0  0  0  0  0  0  0  0  0  0
    1.9803   -0.8386    0.9432 C   0  0  0  0  0  0  0  0  0  0  0  0
   -0.5080   -0.3730    0.3963 C   0  0  0  0  0  0  0  0  0  0  0  0
    2.1808   -1.1963    2.4342 C   0  0  1  0  0  0  0  0  0  0  0  0
   -1.5295   -1.1104   -0.2063 C   0  0  0  0  0  0  0  0  0  0  0  0
    0.3192   -2.3955   -0.1824 C   0  0  0  0  0  0  0  0  0  0  0  0
   -0.7883    0.9330    0.8448 C   0  0  0  0  0  0  0  0  0  0  0  0
   -2.8223   -0.6050   -0.3834 C   0  0  0  0  0  0  0  0  0  0  0  0
   -2.0769    1.4517    0.6742 C   0  0  0  0  0  0  0  0  0  0  0  0
    3.5509   -0.7537    2.9197 C   0  0  0  0  0  0  0  0  0  0  0  0
   -3.0769    0.6928    0.0693 C   0  0  0  0  0  0  0  0  0  0  0  0
    2.1396    0.2406    0.8113 H   0  0  0  0  0  0  0  0  0  0  0  0
    2.7572   -1.3283    0.3397 H   0  0  0  0  0  0  0  0  0  0  0  0
    2.0737   -2.2754    2.5952 H   0  0  0  0  0  0  0  0  0  0  0  0
    0.9002   -3.2868   -0.3743 H   0  0  0  0  0  0  0  0  0  0  0  0
   -1.5092   -3.0787   -1.0019 H   0  0  0  0  0  0  0  0  0  0  0  0
   -0.0242    1.5380    1.3240 H   0  0  0  0  0  0  0  0  0  0  0  0
   -3.5919   -1.2071   -0.8564 H   0  0  0  0  0  0  0  0  0  0  0  0
   -2.2819    2.4605    1.0255 H   0  0  0  0  0  0  0  0  0  0  0  0
    1.2812   -0.8088    4.2306 H   0  0  0  0  0  0  0  0  0  0  0  0
    0.2548   -0.7593    2.9656 H   0  0  0  0  0  0  0  0  0  0  0  0
    5.4400   -1.0551    2.5425 H   0  0  0  0  0  0  0  0  0  0  0  0
  1 16  1  0  0  0  0
  2 15  1  0  0  0  0
  2 27  1  0  0  0  0
  3 15  2  0  0  0  0
  4 10  1  0  0  0  0
  4 11  1  0  0  0  0
  4 21  1  0  0  0  0
  5  9  1  0  0  0  0
  5 25  1  0  0  0  0
  5 26  1  0  0  0  0
  6  7  1  0  0  0  0
  6  8  1  0  0  0  0
  6 11  2  0  0  0  0
  7  9  1  0  0  0  0
  7 17  1  0  0  0  0
  7 18  1  0  0  0  0
  8 10  2  0  0  0  0
  8 12  1  0  0  0  0
  9 15  1  0  0  0  0
  9 19  1  1  0  0  0
 10 13  1  0  0  0  0
 11 20  1  0  0  0  0
 12 14  2  0  0  0  0
 12 22  1  0  0  0  0
 13 16  2  0  0  0  0
 13 23  1  0  0  0  0
 14 16  1  0  0  0  0
 14 24  1  0  0  0  0
M  END
>  <PUBCHEM_COMPOUND_CID>
9856996

>  <PUBCHEM_CONFORMER_RMSD>
0.6

>  <PUBCHEM_CONFORMER_DIVERSEORDER>
1
17
15
19
6
11
14
16
5
9
12
13
18
7
3
2
4
8
10

>  <PUBCHEM_MMFF94_PARTIAL_CHARGES>
23
1 -0.11
10 -0.15
11 -0.3
12 -0.15
13 -0.15
14 -0.15
15 0.66
16 0.11
2 -0.65
20 0.15
21 0.27
22 0.15
23 0.15
24 0.15
25 0.36
26 0.36
27 0.5
3 -0.57
4 0.03
5 -0.99
6 -0.18
7 0.18
9 0.33

>  <PUBCHEM_EFFECTIVE_ROTOR_COUNT>
3

>  <PUBCHEM_PHARMACOPHORE_FEATURES>
10
1 1 hydrophobe
1 2 acceptor
1 3 acceptor
1 4 cation
1 4 donor
1 5 cation
1 5 donor
3 2 3 15 anion
5 4 6 8 10 11 rings
6 8 10 12 13 14 16 rings

>  <PUBCHEM_HEAVY_ATOM_COUNT>
16

>  <PUBCHEM_ATOM_DEF_STEREO_COUNT>
1

>  <PUBCHEM_ATOM_UDEF_STEREO_COUNT>
0

>  <PUBCHEM_BOND_DEF_STEREO_COUNT>
0

>  <PUBCHEM_BOND_UDEF_STEREO_COUNT>
0

>  <PUBCHEM_ISOTOPIC_ATOM_COUNT>
0

>  <PUBCHEM_COMPONENT_COUNT>
1

>  <PUBCHEM_CACTVS_TAUTO_COUNT>
1

>  <PUBCHEM_CONFORMER_ID>
009667E400000001

>  <PUBCHEM_MMFF94_ENERGY>
21.0466

>  <PUBCHEM_FEATURE_SELFOVERLAP>
50.894

>  <PUBCHEM_SHAPE_FINGERPRINT>
11640471 11 17897169241491425364
13380535 76 18410294670965602035
13583140 156 17168139023441679835
14252887 29 11458712659804682608
15775835 57 18333737935238967004
16945 1 18336826377533705283
17134986 127 18410578378913635645
18186145 218 18272381874989339273
20645476 183 18408879646661047803
21524375 3 18335704922923093907
22094290 62 18335420158096341074
231179 274 17968936384086486621
23175994 123 15647323110040252050
23402539 116 18059846273071424276
23419403 2 16323922076747560138
23557571 272 17488738011970372966
23559900 14 17988922289224085616
2748010 2 17262138733348140635
3060560 45 18339925896348549358
474 4 18261115136595359761
4990 188 16845568691446478597
537710 114 18271523105353703161
58051976 378 18270678667485791717
7364860 26 18127413345488937191
7832392 63 18336824281853110036
9981440 41 17542499887858668280

>  <PUBCHEM_SHAPE_MULTIPOLES>
313.51
6.75
2.25
0.97
3
0.6
-0.15
-3.7
-0.12
-0.27
-0.29
-0.29
-0.18
-0.56

>  <PUBCHEM_SHAPE_SELFOVERLAP>
660.574

>  <PUBCHEM_SHAPE_VOLUME>
181.4

>  <PUBCHEM_COORDINATE_TYPE>
2
5
10

$$$$
9856996
 OpenBabel12092211553D

 27 28  0  0  1  0  0  0  0  0999 V2000
   -4.8081    1.4276   -0.1446 Br  0  0  0  0  0  0  0  0  0  0  0  0
    2.7800   -0.4623   -2.4299 O   0  0  0  0  0  0  0  0  0  0  0  0
    2.7890    1.3436   -1.0591 O   0  0  0  0  0  0  0  0  0  0  0  0
   -0.9988   -2.3341   -0.5475 N   0  0  0  0  0  0  0  0  0  0  0  0
    4.3950   -0.5064    0.5253 N   0  0  0  0  0  0  0  0  0  0  0  0
    0.6524   -1.1965    0.4046 C   0  0  0  0  0  0  0  0  0  0  0  0
    1.9803   -0.8386    0.9432 C   0  0  0  0  0  0  0  0  0  0  0  0
   -0.5080   -0.3730    0.3963 C   0  0  0  0  0  0  0  0  0  0  0  0
    3.1217   -0.8743   -0.0994 C   0  0  1  0  0  0  0  0  0  0  0  0
   -1.5295   -1.1104   -0.2063 C   0  0  0  0  0  0  0  0  0  0  0  0
    0.3192   -2.3955   -0.1824 C   0  0  0  0  0  0  0  0  0  0  0  0
   -0.7883    0.9330    0.8448 C   0  0  0  0  0  0  0  0  0  0  0  0
   -2.8223   -0.6050   -0.3834 C   0  0  0  0  0  0  0  0  0  0  0  0
   -2.0769    1.4517    0.6742 C   0  0  0  0  0  0  0  0  0  0  0  0
    2.8738    0.1314   -1.2112 C   0  0  0  0  0  0  0  0  0  0  0  0
   -3.0769    0.6928    0.0693 C   0  0  0  0  0  0  0  0  0  0  0  0
    2.2279   -1.5236    1.7659 H   0  0  0  0  0  0  0  0  0  0  0  0
    1.9272    0.1611    1.3964 H   0  0  0  0  0  0  0  0  0  0  0  0
    3.2216   -1.8751   -0.5357 H   0  0  0  0  0  0  0  0  0  0  0  0
    0.9002   -3.2868   -0.3743 H   0  0  0  0  0  0  0  0  0  0  0  0
   -1.5092   -3.0787   -1.0019 H   0  0  0  0  0  0  0  0  0  0  0  0
   -0.0242    1.5380    1.3240 H   0  0  0  0  0  0  0  0  0  0  0  0
   -3.5919   -1.2071   -0.8564 H   0  0  0  0  0  0  0  0  0  0  0  0
   -2.2819    2.4605    1.0255 H   0  0  0  0  0  0  0  0  0  0  0  0
    5.1510   -0.6174   -0.1497 H   0  0  0  0  0  0  0  0  0  0  0  0
    4.5989   -1.1519    1.2875 H   0  0  0  0  0  0  0  0  0  0  0  0
    2.6269    0.1922   -3.1443 H   0  0  0  0  0  0  0  0  0  0  0  0
  1 16  1  0  0  0  0
  2 15  1  0  0  0  0
  2 27  1  0  0  0  0
  3 15  2  0  0  0  0
  4 10  1  0  0  0  0
  4 11  1  0  0  0  0
  4 21  1  0  0  0  0
  5  9  1  0  0  0  0
  5 25  1  0  0  0  0
  5 26  1  0  0  0  0
  6  7  1  0  0  0  0
  6  8  1  0  0  0  0
  6 11  2  0  0  0  0
  7  9  1  0  0  0  0
  7 17  1  0  0  0  0
  7 18  1  0  0  0  0
  8 10  2  0  0  0  0
  8 12  1  0  0  0  0
  9 15  1  0  0  0  0
  9 19  1  6  0  0  0
 10 13  1  0  0  0  0
 11 20  1  0  0  0  0
 12 14  2  0  0  0  0
 12 22  1  0  0  0  0
 13 16  2  0  0  0  0
 13 23  1  0  0  0  0
 14 16  1  0  0  0  0
 14 24  1  0  0  0  0
M  END
>  <PUBCHEM_COMPOUND_CID>
9856996

>  <PUBCHEM_CONFORMER_RMSD>
0.6

>  <PUBCHEM_CONFORMER_DIVERSEORDER>
1
17
15
19
6
11
14
16
5
9
12
13
18
7
3
2
4
8
10

>  <PUBCHEM_MMFF94_PARTIAL_CHARGES>
23
1 -0.11
10 -0.15
11 -0.3
12 -0.15
13 -0.15
14 -0.15
15 0.66
16 0.11
2 -0.65
20 0.15
21 0.27
22 0.15
23 0.15
24 0.15
25 0.36
26 0.36
27 0.5
3 -0.57
4 0.03
5 -0.99
6 -0.18
7 0.18
9 0.33

>  <PUBCHEM_EFFECTIVE_ROTOR_COUNT>
3

>  <PUBCHEM_PHARMACOPHORE_FEATURES>
10
1 1 hydrophobe
1 2 acceptor
1 3 acceptor
1 4 cation
1 4 donor
1 5 cation
1 5 donor
3 2 3 15 anion
5 4 6 8 10 11 rings
6 8 10 12 13 14 16 rings

>  <PUBCHEM_HEAVY_ATOM_COUNT>
16

>  <PUBCHEM_ATOM_DEF_STEREO_COUNT>
1

>  <PUBCHEM_ATOM_UDEF_STEREO_COUNT>
0

>  <PUBCHEM_BOND_DEF_STEREO_COUNT>
0

>  <PUBCHEM_BOND_UDEF_STEREO_COUNT>
0

>  <PUBCHEM_ISOTOPIC_ATOM_COUNT>
0

>  <PUBCHEM_COMPONENT_COUNT>
1

>  <PUBCHEM_CACTVS_TAUTO_COUNT>
1

>  <PUBCHEM_CONFORMER_ID>
009667E400000001

>  <PUBCHEM_MMFF94_ENERGY>
21.0466

>  <PUBCHEM_FEATURE_SELFOVERLAP>
50.894

>  <PUBCHEM_SHAPE_FINGERPRINT>
11640471 11 17897169241491425364
13380535 76 18410294670965602035
13583140 156 17168139023441679835
14252887 29 11458712659804682608
15775835 57 18333737935238967004
16945 1 18336826377533705283
17134986 127 18410578378913635645
18186145 218 18272381874989339273
20645476 183 18408879646661047803
21524375 3 18335704922923093907
22094290 62 18335420158096341074
231179 274 17968936384086486621
23175994 123 15647323110040252050
23402539 116 18059846273071424276
23419403 2 16323922076747560138
23557571 272 17488738011970372966
23559900 14 17988922289224085616
2748010 2 17262138733348140635
3060560 45 18339925896348549358
474 4 18261115136595359761
4990 188 16845568691446478597
537710 114 18271523105353703161
58051976 378 18270678667485791717
7364860 26 18127413345488937191
7832392 63 18336824281853110036
9981440 41 17542499887858668280

>  <PUBCHEM_SHAPE_MULTIPOLES>
313.51
6.75
2.25
0.97
3
0.6
-0.15
-3.7
-0.12
-0.27
-0.29
-0.29
-0.18
-0.56

>  <PUBCHEM_SHAPE_SELFOVERLAP>
660.574

>  <PUBCHEM_SHAPE_VOLUME>
181.4

>  <PUBCHEM_COORDINATE_TYPE>
2
5
10

$$$$
9856996
 OpenBabel12092211553D

 27 28  0  0  1  0  0  0  0  0999 V2000
   -4.8081    1.4276   -0.1446 Br  0  0  0  0  0  0  0  0  0  0  0  0
    4.1890    0.9520    1.6076 O   0  0  0  0  0  0  0  0  0  0  0  0
    5.3522   -0.3101    0.1262 O   0  0  0  0  0  0  0  0  0  0  0  0
   -0.9988   -2.3341   -0.5475 N   0  0  0  0  0  0  0  0  0  0  0  0
    3.1650   -1.0710   -1.2151 N   0  0  0  0  0  0  0  0  0  0  0  0
    0.6524   -1.1965    0.4046 C   0  0  0  0  0  0  0  0  0  0  0  0
    1.9803   -0.8386    0.9432 C   0  0  0  0  0  0  0  0  0  0  0  0
   -0.5080   -0.3730    0.3963 C   0  0  0  0  0  0  0  0  0  0  0  0
    2.9257   -0.1720   -0.0830 C   0  0  1  0  0  0  0  0  0  0  0  0
   -1.5295   -1.1104   -0.2063 C   0  0  0  0  0  0  0  0  0  0  0  0
    0.3192   -2.3955   -0.1824 C   0  0  0  0  0  0  0  0  0  0  0  0
   -0.7883    0.9330    0.8448 C   0  0  0  0  0  0  0  0  0  0  0  0
   -2.8223   -0.6050   -0.3834 C   0  0  0  0  0  0  0  0  0  0  0  0
   -2.0769    1.4517    0.6742 C   0  0  0  0  0  0  0  0  0  0  0  0
    4.2818    0.1201    0.5372 C   0  0  0  0  0  0  0  0  0  0  0  0
   -3.0769    0.6928    0.0693 C   0  0  0  0  0  0  0  0  0  0  0  0
    2.4622   -1.7450    1.3352 H   0  0  0  0  0  0  0  0  0  0  0  0
    1.8503   -0.1745    1.8091 H   0  0  0  0  0  0  0  0  0  0  0  0
    2.4951    0.7621   -0.4621 H   0  0  0  0  0  0  0  0  0  0  0  0
    0.9002   -3.2868   -0.3743 H   0  0  0  0  0  0  0  0  0  0  0  0
   -1.5092   -3.0787   -1.0019 H   0  0  0  0  0  0  0  0  0  0  0  0
   -0.0242    1.5380    1.3240 H   0  0  0  0  0  0  0  0  0  0  0  0
   -3.5919   -1.2071   -0.8564 H   0  0  0  0  0  0  0  0  0  0  0  0
   -2.2819    2.4605    1.0255 H   0  0  0  0  0  0  0  0  0  0  0  0
    3.7177   -0.5886   -1.9230 H   0  0  0  0  0  0  0  0  0  0  0  0
    2.2770   -1.3030   -1.6587 H   0  0  0  0  0  0  0  0  0  0  0  0
    5.0679    1.1425    1.9995 H   0  0  0  0  0  0  0  0  0  0  0  0
  1 16  1  0  0  0  0
  2 15  1  0  0  0  0
  2 27  1  0  0  0  0
  3 15  2  0  0  0  0
  4 10  1  0  0  0  0
  4 11  1  0  0  0  0
  4 21  1  0  0  0  0
  5  9  1  0  0  0  0
  5 25  1  0  0  0  0
  5 26  1  0  0  0  0
  6  7  1  0  0  0  0
  6  8  1  0  0  0  0
  6 11  2  0  0  0  0
  7  9  1  0  0  0  0
  7 17  1  0  0  0  0
  7 18  1  0  0  0  0
  8 10  2  0  0  0  0
  8 12  1  0  0  0  0
  9 15  1  0  0  0  0
  9 19  1  6  0  0  0
 10 13  1  0  0  0  0
 11 20  1  0  0  0  0
 12 14  2  0  0  0  0
 12 22  1  0  0  0  0
 13 16  2  0  0  0  0
 13 23  1  0  0  0  0
 14 16  1  0  0  0  0
 14 24  1  0  0  0  0
M  END
>  <PUBCHEM_COMPOUND_CID>
9856996

>  <PUBCHEM_CONFORMER_RMSD>
0.6

>  <PUBCHEM_CONFORMER_DIVERSEORDER>
1
17
15
19
6
11
14
16
5
9
12
13
18
7
3
2
4
8
10

>  <PUBCHEM_MMFF94_PARTIAL_CHARGES>
23
1 -0.11
10 -0.15
11 -0.3
12 -0.15
13 -0.15
14 -0.15
15 0.66
16 0.11
2 -0.65
20 0.15
21 0.27
22 0.15
23 0.15
24 0.15
25 0.36
26 0.36
27 0.5
3 -0.57
4 0.03
5 -0.99
6 -0.18
7 0.18
9 0.33

>  <PUBCHEM_EFFECTIVE_ROTOR_COUNT>
3

>  <PUBCHEM_PHARMACOPHORE_FEATURES>
10
1 1 hydrophobe
1 2 acceptor
1 3 acceptor
1 4 cation
1 4 donor
1 5 cation
1 5 donor
3 2 3 15 anion
5 4 6 8 10 11 rings
6 8 10 12 13 14 16 rings

>  <PUBCHEM_HEAVY_ATOM_COUNT>
16

>  <PUBCHEM_ATOM_DEF_STEREO_COUNT>
1

>  <PUBCHEM_ATOM_UDEF_STEREO_COUNT>
0

>  <PUBCHEM_BOND_DEF_STEREO_COUNT>
0

>  <PUBCHEM_BOND_UDEF_STEREO_COUNT>
0

>  <PUBCHEM_ISOTOPIC_ATOM_COUNT>
0

>  <PUBCHEM_COMPONENT_COUNT>
1

>  <PUBCHEM_CACTVS_TAUTO_COUNT>
1

>  <PUBCHEM_CONFORMER_ID>
009667E400000001

>  <PUBCHEM_MMFF94_ENERGY>
21.0466

>  <PUBCHEM_FEATURE_SELFOVERLAP>
50.894

>  <PUBCHEM_SHAPE_FINGERPRINT>
11640471 11 17897169241491425364
13380535 76 18410294670965602035
13583140 156 17168139023441679835
14252887 29 11458712659804682608
15775835 57 18333737935238967004
16945 1 18336826377533705283
17134986 127 18410578378913635645
18186145 218 18272381874989339273
20645476 183 18408879646661047803
21524375 3 18335704922923093907
22094290 62 18335420158096341074
231179 274 17968936384086486621
23175994 123 15647323110040252050
23402539 116 18059846273071424276
23419403 2 16323922076747560138
23557571 272 17488738011970372966
23559900 14 17988922289224085616
2748010 2 17262138733348140635
3060560 45 18339925896348549358
474 4 18261115136595359761
4990 188 16845568691446478597
537710 114 18271523105353703161
58051976 378 18270678667485791717
7364860 26 18127413345488937191
7832392 63 18336824281853110036
9981440 41 17542499887858668280

>  <PUBCHEM_SHAPE_MULTIPOLES>
313.51
6.75
2.25
0.97
3
0.6
-0.15
-3.7
-0.12
-0.27
-0.29
-0.29
-0.18
-0.56

>  <PUBCHEM_SHAPE_SELFOVERLAP>
660.574

>  <PUBCHEM_SHAPE_VOLUME>
181.4

>  <PUBCHEM_COORDINATE_TYPE>
2
5
10

$$$$
9856996
 OpenBabel12092211553D

 27 28  0  0  1  0  0  0  0  0999 V2000
   -4.8081    1.4276   -0.1446 Br  0  0  0  0  0  0  0  0  0  0  0  0
    4.9005   -1.0077    0.9752 O   0  0  0  0  0  0  0  0  0  0  0  0
    4.7737    1.2345    0.6635 O   0  0  0  0  0  0  0  0  0  0  0  0
   -0.9988   -2.3341   -0.5475 N   0  0  0  0  0  0  0  0  0  0  0  0
    3.1650   -1.0710   -1.2151 N   0  0  0  0  0  0  0  0  0  0  0  0
    0.6524   -1.1965    0.4046 C   0  0  0  0  0  0  0  0  0  0  0  0
    1.9803   -0.8386    0.9432 C   0  0  0  0  0  0  0  0  0  0  0  0
   -0.5080   -0.3730    0.3963 C   0  0  0  0  0  0  0  0  0  0  0  0
    2.9257   -0.1720   -0.0830 C   0  0  1  0  0  0  0  0  0  0  0  0
   -1.5295   -1.1104   -0.2063 C   0  0  0  0  0  0  0  0  0  0  0  0
    0.3192   -2.3955   -0.1824 C   0  0  0  0  0  0  0  0  0  0  0  0
   -0.7883    0.9330    0.8448 C   0  0  0  0  0  0  0  0  0  0  0  0
   -2.8223   -0.6050   -0.3834 C   0  0  0  0  0  0  0  0  0  0  0  0
   -2.0769    1.4517    0.6742 C   0  0  0  0  0  0  0  0  0  0  0  0
    4.2818    0.1201    0.5372 C   0  0  0  0  0  0  0  0  0  0  0  0
   -3.0769    0.6928    0.0693 C   0  0  0  0  0  0  0  0  0  0  0  0
    2.4622   -1.7450    1.3352 H   0  0  0  0  0  0  0  0  0  0  0  0
    1.8503   -0.1745    1.8091 H   0  0  0  0  0  0  0  0  0  0  0  0
    2.4951    0.7621   -0.4621 H   0  0  0  0  0  0  0  0  0  0  0  0
    0.9002   -3.2868   -0.3743 H   0  0  0  0  0  0  0  0  0  0  0  0
   -1.5092   -3.0787   -1.0019 H   0  0  0  0  0  0  0  0  0  0  0  0
   -0.0242    1.5380    1.3240 H   0  0  0  0  0  0  0  0  0  0  0  0
   -3.5919   -1.2071   -0.8564 H   0  0  0  0  0  0  0  0  0  0  0  0
   -2.2819    2.4605    1.0255 H   0  0  0  0  0  0  0  0  0  0  0  0
    3.7177   -0.5886   -1.9230 H   0  0  0  0  0  0  0  0  0  0  0  0
    2.2770   -1.3030   -1.6587 H   0  0  0  0  0  0  0  0  0  0  0  0
    5.7720   -0.8123    1.3806 H   0  0  0  0  0  0  0  0  0  0  0  0
  1 16  1  0  0  0  0
  2 15  1  0  0  0  0
  2 27  1  0  0  0  0
  3 15  2  0  0  0  0
  4 10  1  0  0  0  0
  4 11  1  0  0  0  0
  4 21  1  0  0  0  0
  5  9  1  0  0  0  0
  5 25  1  0  0  0  0
  5 26  1  0  0  0  0
  6  7  1  0  0  0  0
  6  8  1  0  0  0  0
  6 11  2  0  0  0  0
  7  9  1  0  0  0  0
  7 17  1  0  0  0  0
  7 18  1  0  0  0  0
  8 10  2  0  0  0  0
  8 12  1  0  0  0  0
  9 15  1  0  0  0  0
  9 19  1  6  0  0  0
 10 13  1  0  0  0  0
 11 20  1  0  0  0  0
 12 14  2  0  0  0  0
 12 22  1  0  0  0  0
 13 16  2  0  0  0  0
 13 23  1  0  0  0  0
 14 16  1  0  0  0  0
 14 24  1  0  0  0  0
M  END
>  <PUBCHEM_COMPOUND_CID>
9856996

>  <PUBCHEM_CONFORMER_RMSD>
0.6

>  <PUBCHEM_CONFORMER_DIVERSEORDER>
1
17
15
19
6
11
14
16
5
9
12
13
18
7
3
2
4
8
10

>  <PUBCHEM_MMFF94_PARTIAL_CHARGES>
23
1 -0.11
10 -0.15
11 -0.3
12 -0.15
13 -0.15
14 -0.15
15 0.66
16 0.11
2 -0.65
20 0.15
21 0.27
22 0.15
23 0.15
24 0.15
25 0.36
26 0.36
27 0.5
3 -0.57
4 0.03
5 -0.99
6 -0.18
7 0.18
9 0.33

>  <PUBCHEM_EFFECTIVE_ROTOR_COUNT>
3

>  <PUBCHEM_PHARMACOPHORE_FEATURES>
10
1 1 hydrophobe
1 2 acceptor
1 3 acceptor
1 4 cation
1 4 donor
1 5 cation
1 5 donor
3 2 3 15 anion
5 4 6 8 10 11 rings
6 8 10 12 13 14 16 rings

>  <PUBCHEM_HEAVY_ATOM_COUNT>
16

>  <PUBCHEM_ATOM_DEF_STEREO_COUNT>
1

>  <PUBCHEM_ATOM_UDEF_STEREO_COUNT>
0

>  <PUBCHEM_BOND_DEF_STEREO_COUNT>
0

>  <PUBCHEM_BOND_UDEF_STEREO_COUNT>
0

>  <PUBCHEM_ISOTOPIC_ATOM_COUNT>
0

>  <PUBCHEM_COMPONENT_COUNT>
1

>  <PUBCHEM_CACTVS_TAUTO_COUNT>
1

>  <PUBCHEM_CONFORMER_ID>
009667E400000001

>  <PUBCHEM_MMFF94_ENERGY>
21.0466

>  <PUBCHEM_FEATURE_SELFOVERLAP>
50.894

>  <PUBCHEM_SHAPE_FINGERPRINT>
11640471 11 17897169241491425364
13380535 76 18410294670965602035
13583140 156 17168139023441679835
14252887 29 11458712659804682608
15775835 57 18333737935238967004
16945 1 18336826377533705283
17134986 127 18410578378913635645
18186145 218 18272381874989339273
20645476 183 18408879646661047803
21524375 3 18335704922923093907
22094290 62 18335420158096341074
231179 274 17968936384086486621
23175994 123 15647323110040252050
23402539 116 18059846273071424276
23419403 2 16323922076747560138
23557571 272 17488738011970372966
23559900 14 17988922289224085616
2748010 2 17262138733348140635
3060560 45 18339925896348549358
474 4 18261115136595359761
4990 188 16845568691446478597
537710 114 18271523105353703161
58051976 378 18270678667485791717
7364860 26 18127413345488937191
7832392 63 18336824281853110036
9981440 41 17542499887858668280

>  <PUBCHEM_SHAPE_MULTIPOLES>
313.51
6.75
2.25
0.97
3
0.6
-0.15
-3.7
-0.12
-0.27
-0.29
-0.29
-0.18
-0.56

>  <PUBCHEM_SHAPE_SELFOVERLAP>
660.574

>  <PUBCHEM_SHAPE_VOLUME>
181.4

>  <PUBCHEM_COORDINATE_TYPE>
2
5
10

$$$$
9856996
 OpenBabel12092211553D

 27 28  0  0  1  0  0  0  0  0999 V2000
   -4.8081    1.4276   -0.1446 Br  0  0  0  0  0  0  0  0  0  0  0  0
    3.7800   -0.9908    3.9311 O   0  0  0  0  0  0  0  0  0  0  0  0
    4.8412   -1.1796    1.9364 O   0  0  0  0  0  0  0  0  0  0  0  0
   -0.9988   -2.3341   -0.5475 N   0  0  0  0  0  0  0  0  0  0  0  0
    1.5454   -1.7233    3.2113 N   0  0  0  0  0  0  0  0  0  0  0  0
    0.6524   -1.1965    0.4046 C   0  0  0  0  0  0  0  0  0  0  0  0
    1.9803   -0.8386    0.9432 C   0  0  0  0  0  0  0  0  0  0  0  0
   -0.5080   -0.3730    0.3963 C   0  0  0  0  0  0  0  0  0  0  0  0
    2.4766   -1.7614    2.0804 C   0  0  1  0  0  0  0  0  0  0  0  0
   -1.5295   -1.1104   -0.2063 C   0  0  0  0  0  0  0  0  0  0  0  0
    0.3192   -2.3955   -0.1824 C   0  0  0  0  0  0  0  0  0  0  0  0
   -0.7883    0.9330    0.8448 C   0  0  0  0  0  0  0  0  0  0  0  0
   -2.8223   -0.6050   -0.3834 C   0  0  0  0  0  0  0  0  0  0  0  0
   -2.0769    1.4517    0.6742 C   0  0  0  0  0  0  0  0  0  0  0  0
    3.8239   -1.2973    2.6080 C   0  0  0  0  0  0  0  0  0  0  0  0
   -3.0769    0.6928    0.0693 C   0  0  0  0  0  0  0  0  0  0  0  0
    1.9484    0.1959    1.3122 H   0  0  0  0  0  0  0  0  0  0  0  0
    2.7127   -0.8381    0.1239 H   0  0  0  0  0  0  0  0  0  0  0  0
    2.5641   -2.7975    1.7332 H   0  0  0  0  0  0  0  0  0  0  0  0
    0.9002   -3.2868   -0.3743 H   0  0  0  0  0  0  0  0  0  0  0  0
   -1.5092   -3.0787   -1.0019 H   0  0  0  0  0  0  0  0  0  0  0  0
   -0.0242    1.5380    1.3240 H   0  0  0  0  0  0  0  0  0  0  0  0
   -3.5919   -1.2071   -0.8564 H   0  0  0  0  0  0  0  0  0  0  0  0
   -2.2819    2.4605    1.0255 H   0  0  0  0  0  0  0  0  0  0  0  0
    1.8372   -2.3993    3.9165 H   0  0  0  0  0  0  0  0  0  0  0  0
    0.6209   -2.0194    2.9006 H   0  0  0  0  0  0  0  0  0  0  0  0
    4.6505   -0.6853    4.2644 H   0  0  0  0  0  0  0  0  0  0  0  0
  1 16  1  0  0  0  0
  2 15  1  0  0  0  0
  2 27  1  0  0  0  0
  3 15  2  0  0  0  0
  4 10  1  0  0  0  0
  4 11  1  0  0  0  0
  4 21  1  0  0  0  0
  5  9  1  0  0  0  0
  5 25  1  0  0  0  0
  5 26  1  0  0  0  0
  6  7  1  0  0  0  0
  6  8  1  0  0  0  0
  6 11  2  0  0  0  0
  7  9  1  0  0  0  0
  7 17  1  0  0  0  0
  7 18  1  0  0  0  0
  8 10  2  0  0  0  0
  8 12  1  0  0  0  0
  9 15  1  0  0  0  0
  9 19  1  6  0  0  0
 10 13  1  0  0  0  0
 11 20  1  0  0  0  0
 12 14  2  0  0  0  0
 12 22  1  0  0  0  0
 13 16  2  0  0  0  0
 13 23  1  0  0  0  0
 14 16  1  0  0  0  0
 14 24  1  0  0  0  0
M  END
>  <PUBCHEM_COMPOUND_CID>
9856996

>  <PUBCHEM_CONFORMER_RMSD>
0.6

>  <PUBCHEM_CONFORMER_DIVERSEORDER>
1
17
15
19
6
11
14
16
5
9
12
13
18
7
3
2
4
8
10

>  <PUBCHEM_MMFF94_PARTIAL_CHARGES>
23
1 -0.11
10 -0.15
11 -0.3
12 -0.15
13 -0.15
14 -0.15
15 0.66
16 0.11
2 -0.65
20 0.15
21 0.27
22 0.15
23 0.15
24 0.15
25 0.36
26 0.36
27 0.5
3 -0.57
4 0.03
5 -0.99
6 -0.18
7 0.18
9 0.33

>  <PUBCHEM_EFFECTIVE_ROTOR_COUNT>
3

>  <PUBCHEM_PHARMACOPHORE_FEATURES>
10
1 1 hydrophobe
1 2 acceptor
1 3 acceptor
1 4 cation
1 4 donor
1 5 cation
1 5 donor
3 2 3 15 anion
5 4 6 8 10 11 rings
6 8 10 12 13 14 16 rings

>  <PUBCHEM_HEAVY_ATOM_COUNT>
16

>  <PUBCHEM_ATOM_DEF_STEREO_COUNT>
1

>  <PUBCHEM_ATOM_UDEF_STEREO_COUNT>
0

>  <PUBCHEM_BOND_DEF_STEREO_COUNT>
0

>  <PUBCHEM_BOND_UDEF_STEREO_COUNT>
0

>  <PUBCHEM_ISOTOPIC_ATOM_COUNT>
0

>  <PUBCHEM_COMPONENT_COUNT>
1

>  <PUBCHEM_CACTVS_TAUTO_COUNT>
1

>  <PUBCHEM_CONFORMER_ID>
009667E400000001

>  <PUBCHEM_MMFF94_ENERGY>
21.0466

>  <PUBCHEM_FEATURE_SELFOVERLAP>
50.894

>  <PUBCHEM_SHAPE_FINGERPRINT>
11640471 11 17897169241491425364
13380535 76 18410294670965602035
13583140 156 17168139023441679835
14252887 29 11458712659804682608
15775835 57 18333737935238967004
16945 1 18336826377533705283
17134986 127 18410578378913635645
18186145 218 18272381874989339273
20645476 183 18408879646661047803
21524375 3 18335704922923093907
22094290 62 18335420158096341074
231179 274 17968936384086486621
23175994 123 15647323110040252050
23402539 116 18059846273071424276
23419403 2 16323922076747560138
23557571 272 17488738011970372966
23559900 14 17988922289224085616
2748010 2 17262138733348140635
3060560 45 18339925896348549358
474 4 18261115136595359761
4990 188 16845568691446478597
537710 114 18271523105353703161
58051976 378 18270678667485791717
7364860 26 18127413345488937191
7832392 63 18336824281853110036
9981440 41 17542499887858668280

>  <PUBCHEM_SHAPE_MULTIPOLES>
313.51
6.75
2.25
0.97
3
0.6
-0.15
-3.7
-0.12
-0.27
-0.29
-0.29
-0.18
-0.56

>  <PUBCHEM_SHAPE_SELFOVERLAP>
660.574

>  <PUBCHEM_SHAPE_VOLUME>
181.4

>  <PUBCHEM_COORDINATE_TYPE>
2
5
10

$$$$
9856996
 OpenBabel12092211553D

 27 28  0  0  1  0  0  0  0  0999 V2000
   -4.8081    1.4276   -0.1446 Br  0  0  0  0  0  0  0  0  0  0  0  0
    2.4722   -3.4056    1.5671 O   0  0  0  0  0  0  0  0  0  0  0  0
    1.6433   -3.2296    3.6701 O   0  0  0  0  0  0  0  0  0  0  0  0
   -0.9988   -2.3341   -0.5475 N   0  0  0  0  0  0  0  0  0  0  0  0
    3.5219   -0.8052    2.8767 N   0  0  0  0  0  0  0  0  0  0  0  0
    0.6524   -1.1965    0.4046 C   0  0  0  0  0  0  0  0  0  0  0  0
    1.9803   -0.8386    0.9432 C   0  0  0  0  0  0  0  0  0  0  0  0
   -0.5080   -0.3730    0.3963 C   0  0  0  0  0  0  0  0  0  0  0  0
    2.1808   -1.1963    2.4342 C   0  0  1  0  0  0  0  0  0  0  0  0
   -1.5295   -1.1104   -0.2063 C   0  0  0  0  0  0  0  0  0  0  0  0
    0.3192   -2.3955   -0.1824 C   0  0  0  0  0  0  0  0  0  0  0  0
   -0.7883    0.9330    0.8448 C   0  0  0  0  0  0  0  0  0  0  0  0
   -2.8223   -0.6050   -0.3834 C   0  0  0  0  0  0  0  0  0  0  0  0
   -2.0769    1.4517    0.6742 C   0  0  0  0  0  0  0  0  0  0  0  0
    2.0683   -2.6957    2.6531 C   0  0  0  0  0  0  0  0  0  0  0  0
   -3.0769    0.6928    0.0693 C   0  0  0  0  0  0  0  0  0  0  0  0
    2.1396    0.2406    0.8113 H   0  0  0  0  0  0  0  0  0  0  0  0
    2.7572   -1.3283    0.3397 H   0  0  0  0  0  0  0  0  0  0  0  0
    1.4417   -0.6849    3.0618 H   0  0  0  0  0  0  0  0  0  0  0  0
    0.9002   -3.2868   -0.3743 H   0  0  0  0  0  0  0  0  0  0  0  0
   -1.5092   -3.0787   -1.0019 H   0  0  0  0  0  0  0  0  0  0  0  0
   -0.0242    1.5380    1.3240 H   0  0  0  0  0  0  0  0  0  0  0  0
   -3.5919   -1.2071   -0.8564 H   0  0  0  0  0  0  0  0  0  0  0  0
   -2.2819    2.4605    1.0255 H   0  0  0  0  0  0  0  0  0  0  0  0
    3.6109   -0.9666    3.8794 H   0  0  0  0  0  0  0  0  0  0  0  0
    3.6466    0.1970    2.7389 H   0  0  0  0  0  0  0  0  0  0  0  0
    2.3909   -4.3724    1.7117 H   0  0  0  0  0  0  0  0  0  0  0  0
  1 16  1  0  0  0  0
  2 15  1  0  0  0  0
  2 27  1  0  0  0  0
  3 15  2  0  0  0  0
  4 10  1  0  0  0  0
  4 11  1  0  0  0  0
  4 21  1  0  0  0  0
  5  9  1  0  0  0  0
  5 25  1  0  0  0  0
  5 26  1  0  0  0  0
  6  7  1  0  0  0  0
  6  8  1  0  0  0  0
  6 11  2  0  0  0  0
  7  9  1  0  0  0  0
  7 17  1  0  0  0  0
  7 18  1  0  0  0  0
  8 10  2  0  0  0  0
  8 12  1  0  0  0  0
  9 15  1  0  0  0  0
  9 19  1  1  0  0  0
 10 13  1  0  0  0  0
 11 20  1  0  0  0  0
 12 14  2  0  0  0  0
 12 22  1  0  0  0  0
 13 16  2  0  0  0  0
 13 23  1  0  0  0  0
 14 16  1  0  0  0  0
 14 24  1  0  0  0  0
M  END
>  <PUBCHEM_COMPOUND_CID>
9856996

>  <PUBCHEM_CONFORMER_RMSD>
0.6

>  <PUBCHEM_CONFORMER_DIVERSEORDER>
1
17
15
19
6
11
14
16
5
9
12
13
18
7
3
2
4
8
10

>  <PUBCHEM_MMFF94_PARTIAL_CHARGES>
23
1 -0.11
10 -0.15
11 -0.3
12 -0.15
13 -0.15
14 -0.15
15 0.66
16 0.11
2 -0.65
20 0.15
21 0.27
22 0.15
23 0.15
24 0.15
25 0.36
26 0.36
27 0.5
3 -0.57
4 0.03
5 -0.99
6 -0.18
7 0.18
9 0.33

>  <PUBCHEM_EFFECTIVE_ROTOR_COUNT>
3

>  <PUBCHEM_PHARMACOPHORE_FEATURES>
10
1 1 hydrophobe
1 2 acceptor
1 3 acceptor
1 4 cation
1 4 donor
1 5 cation
1 5 donor
3 2 3 15 anion
5 4 6 8 10 11 rings
6 8 10 12 13 14 16 rings

>  <PUBCHEM_HEAVY_ATOM_COUNT>
16

>  <PUBCHEM_ATOM_DEF_STEREO_COUNT>
1

>  <PUBCHEM_ATOM_UDEF_STEREO_COUNT>
0

>  <PUBCHEM_BOND_DEF_STEREO_COUNT>
0

>  <PUBCHEM_BOND_UDEF_STEREO_COUNT>
0

>  <PUBCHEM_ISOTOPIC_ATOM_COUNT>
0

>  <PUBCHEM_COMPONENT_COUNT>
1

>  <PUBCHEM_CACTVS_TAUTO_COUNT>
1

>  <PUBCHEM_CONFORMER_ID>
009667E400000001

>  <PUBCHEM_MMFF94_ENERGY>
21.0466

>  <PUBCHEM_FEATURE_SELFOVERLAP>
50.894

>  <PUBCHEM_SHAPE_FINGERPRINT>
11640471 11 17897169241491425364
13380535 76 18410294670965602035
13583140 156 17168139023441679835
14252887 29 11458712659804682608
15775835 57 18333737935238967004
16945 1 18336826377533705283
17134986 127 18410578378913635645
18186145 218 18272381874989339273
20645476 183 18408879646661047803
21524375 3 18335704922923093907
22094290 62 18335420158096341074
231179 274 17968936384086486621
23175994 123 15647323110040252050
23402539 116 18059846273071424276
23419403 2 16323922076747560138
23557571 272 17488738011970372966
23559900 14 17988922289224085616
2748010 2 17262138733348140635
3060560 45 18339925896348549358
474 4 18261115136595359761
4990 188 16845568691446478597
537710 114 18271523105353703161
58051976 378 18270678667485791717
7364860 26 18127413345488937191
7832392 63 18336824281853110036
9981440 41 17542499887858668280

>  <PUBCHEM_SHAPE_MULTIPOLES>
313.51
6.75
2.25
0.97
3
0.6
-0.15
-3.7
-0.12
-0.27
-0.29
-0.29
-0.18
-0.56

>  <PUBCHEM_SHAPE_SELFOVERLAP>
660.574

>  <PUBCHEM_SHAPE_VOLUME>
181.4

>  <PUBCHEM_COORDINATE_TYPE>
2
5
10

$$$$
9856996
 OpenBabel12092211553D

 27 28  0  0  1  0  0  0  0  0999 V2000
   -4.8081    1.4276   -0.1446 Br  0  0  0  0  0  0  0  0  0  0  0  0
    4.5893   -0.4602    1.4460 O   0  0  0  0  0  0  0  0  0  0  0  0
    4.7343   -2.1440    2.9574 O   0  0  0  0  0  0  0  0  0  0  0  0
   -0.9988   -2.3341   -0.5475 N   0  0  0  0  0  0  0  0  0  0  0  0
    2.0665   -2.6964    2.5732 N   0  0  0  0  0  0  0  0  0  0  0  0
    0.6524   -1.1965    0.4046 C   0  0  0  0  0  0  0  0  0  0  0  0
    1.9803   -0.8386    0.9432 C   0  0  0  0  0  0  0  0  0  0  0  0
   -0.5080   -0.3730    0.3963 C   0  0  0  0  0  0  0  0  0  0  0  0
    2.7929   -2.0378    1.4843 C   0  0  1  0  0  0  0  0  0  0  0  0
   -1.5295   -1.1104   -0.2063 C   0  0  0  0  0  0  0  0  0  0  0  0
    0.3192   -2.3955   -0.1824 C   0  0  0  0  0  0  0  0  0  0  0  0
   -0.7883    0.9330    0.8448 C   0  0  0  0  0  0  0  0  0  0  0  0
   -2.8223   -0.6050   -0.3834 C   0  0  0  0  0  0  0  0  0  0  0  0
   -2.0769    1.4517    0.6742 C   0  0  0  0  0  0  0  0  0  0  0  0
    4.1216   -1.5781    2.0606 C   0  0  0  0  0  0  0  0  0  0  0  0
   -3.0769    0.6928    0.0693 C   0  0  0  0  0  0  0  0  0  0  0  0
    1.8517   -0.1028    1.7491 H   0  0  0  0  0  0  0  0  0  0  0  0
    2.5585   -0.3246    0.1627 H   0  0  0  0  0  0  0  0  0  0  0  0
    2.9795   -2.7728    0.6926 H   0  0  0  0  0  0  0  0  0  0  0  0
    0.9002   -3.2868   -0.3743 H   0  0  0  0  0  0  0  0  0  0  0  0
   -1.5092   -3.0787   -1.0019 H   0  0  0  0  0  0  0  0  0  0  0  0
   -0.0242    1.5380    1.3240 H   0  0  0  0  0  0  0  0  0  0  0  0
   -3.5919   -1.2071   -0.8564 H   0  0  0  0  0  0  0  0  0  0  0  0
   -2.2819    2.4605    1.0255 H   0  0  0  0  0  0  0  0  0  0  0  0
    2.5708   -3.5341    2.8621 H   0  0  0  0  0  0  0  0  0  0  0  0
    1.1597   -3.0148    2.2334 H   0  0  0  0  0  0  0  0  0  0  0  0
    5.4504   -0.1722    1.8174 H   0  0  0  0  0  0  0  0  0  0  0  0
  1 16  1  0  0  0  0
  2 15  1  0  0  0  0
  2 27  1  0  0  0  0
  3 15  2  0  0  0  0
  4 10  1  0  0  0  0
  4 11  1  0  0  0  0
  4 21  1  0  0  0  0
  5  9  1  0  0  0  0
  5 25  1  0  0  0  0
  5 26  1  0  0  0  0
  6  7  1  0  0  0  0
  6  8  1  0  0  0  0
  6 11  2  0  0  0  0
  7  9  1  0  0  0  0
  7 17  1  0  0  0  0
  7 18  1  0  0  0  0
  8 10  2  0  0  0  0
  8 12  1  0  0  0  0
  9 15  1  0  0  0  0
  9 19  1  6  0  0  0
 10 13  1  0  0  0  0
 11 20  1  0  0  0  0
 12 14  2  0  0  0  0
 12 22  1  0  0  0  0
 13 16  2  0  0  0  0
 13 23  1  0  0  0  0
 14 16  1  0  0  0  0
 14 24  1  0  0  0  0
M  END
>  <PUBCHEM_COMPOUND_CID>
9856996

>  <PUBCHEM_CONFORMER_RMSD>
0.6

>  <PUBCHEM_CONFORMER_DIVERSEORDER>
1
17
15
19
6
11
14
16
5
9
12
13
18
7
3
2
4
8
10

>  <PUBCHEM_MMFF94_PARTIAL_CHARGES>
23
1 -0.11
10 -0.15
11 -0.3
12 -0.15
13 -0.15
14 -0.15
15 0.66
16 0.11
2 -0.65
20 0.15
21 0.27
22 0.15
23 0.15
24 0.15
25 0.36
26 0.36
27 0.5
3 -0.57
4 0.03
5 -0.99
6 -0.18
7 0.18
9 0.33

>  <PUBCHEM_EFFECTIVE_ROTOR_COUNT>
3

>  <PUBCHEM_PHARMACOPHORE_FEATURES>
10
1 1 hydrophobe
1 2 acceptor
1 3 acceptor
1 4 cation
1 4 donor
1 5 cation
1 5 donor
3 2 3 15 anion
5 4 6 8 10 11 rings
6 8 10 12 13 14 16 rings

>  <PUBCHEM_HEAVY_ATOM_COUNT>
16

>  <PUBCHEM_ATOM_DEF_STEREO_COUNT>
1

>  <PUBCHEM_ATOM_UDEF_STEREO_COUNT>
0

>  <PUBCHEM_BOND_DEF_STEREO_COUNT>
0

>  <PUBCHEM_BOND_UDEF_STEREO_COUNT>
0

>  <PUBCHEM_ISOTOPIC_ATOM_COUNT>
0

>  <PUBCHEM_COMPONENT_COUNT>
1

>  <PUBCHEM_CACTVS_TAUTO_COUNT>
1

>  <PUBCHEM_CONFORMER_ID>
009667E400000001

>  <PUBCHEM_MMFF94_ENERGY>
21.0466

>  <PUBCHEM_FEATURE_SELFOVERLAP>
50.894

>  <PUBCHEM_SHAPE_FINGERPRINT>
11640471 11 17897169241491425364
13380535 76 18410294670965602035
13583140 156 17168139023441679835
14252887 29 11458712659804682608
15775835 57 18333737935238967004
16945 1 18336826377533705283
17134986 127 18410578378913635645
18186145 218 18272381874989339273
20645476 183 18408879646661047803
21524375 3 18335704922923093907
22094290 62 18335420158096341074
231179 274 17968936384086486621
23175994 123 15647323110040252050
23402539 116 18059846273071424276
23419403 2 16323922076747560138
23557571 272 17488738011970372966
23559900 14 17988922289224085616
2748010 2 17262138733348140635
3060560 45 18339925896348549358
474 4 18261115136595359761
4990 188 16845568691446478597
537710 114 18271523105353703161
58051976 378 18270678667485791717
7364860 26 18127413345488937191
7832392 63 18336824281853110036
9981440 41 17542499887858668280

>  <PUBCHEM_SHAPE_MULTIPOLES>
313.51
6.75
2.25
0.97
3
0.6
-0.15
-3.7
-0.12
-0.27
-0.29
-0.29
-0.18
-0.56

>  <PUBCHEM_SHAPE_SELFOVERLAP>
660.574

>  <PUBCHEM_SHAPE_VOLUME>
181.4

>  <PUBCHEM_COORDINATE_TYPE>
2
5
10

$$$$
9856996
 OpenBabel12092211553D

 27 28  0  0  1  0  0  0  0  0999 V2000
   -4.8081    1.4276   -0.1446 Br  0  0  0  0  0  0  0  0  0  0  0  0
    3.4190    1.3455   -0.9371 O   0  0  0  0  0  0  0  0  0  0  0  0
    2.2388   -0.0914   -2.2344 O   0  0  0  0  0  0  0  0  0  0  0  0
   -0.9988   -2.3341   -0.5475 N   0  0  0  0  0  0  0  0  0  0  0  0
    4.3950   -0.5064    0.5253 N   0  0  0  0  0  0  0  0  0  0  0  0
    0.6524   -1.1965    0.4046 C   0  0  0  0  0  0  0  0  0  0  0  0
    1.9803   -0.8386    0.9432 C   0  0  0  0  0  0  0  0  0  0  0  0
   -0.5080   -0.3730    0.3963 C   0  0  0  0  0  0  0  0  0  0  0  0
    3.1217   -0.8743   -0.0994 C   0  0  1  0  0  0  0  0  0  0  0  0
   -1.5295   -1.1104   -0.2063 C   0  0  0  0  0  0  0  0  0  0  0  0
    0.3192   -2.3955   -0.1824 C   0  0  0  0  0  0  0  0  0  0  0  0
   -0.7883    0.9330    0.8448 C   0  0  0  0  0  0  0  0  0  0  0  0
   -2.8223   -0.6050   -0.3834 C   0  0  0  0  0  0  0  0  0  0  0  0
   -2.0769    1.4517    0.6742 C   0  0  0  0  0  0  0  0  0  0  0  0
    2.8738    0.1314   -1.2112 C   0  0  0  0  0  0  0  0  0  0  0  0
   -3.0769    0.6928    0.0693 C   0  0  0  0  0  0  0  0  0  0  0  0
    2.2279   -1.5236    1.7659 H   0  0  0  0  0  0  0  0  0  0  0  0
    1.9272    0.1611    1.3964 H   0  0  0  0  0  0  0  0  0  0  0  0
    3.2216   -1.8751   -0.5357 H   0  0  0  0  0  0  0  0  0  0  0  0
    0.9002   -3.2868   -0.3743 H   0  0  0  0  0  0  0  0  0  0  0  0
   -1.5092   -3.0787   -1.0019 H   0  0  0  0  0  0  0  0  0  0  0  0
   -0.0242    1.5380    1.3240 H   0  0  0  0  0  0  0  0  0  0  0  0
   -3.5919   -1.2071   -0.8564 H   0  0  0  0  0  0  0  0  0  0  0  0
   -2.2819    2.4605    1.0255 H   0  0  0  0  0  0  0  0  0  0  0  0
    5.1510   -0.6174   -0.1497 H   0  0  0  0  0  0  0  0  0  0  0  0
    4.5989   -1.1519    1.2875 H   0  0  0  0  0  0  0  0  0  0  0  0
    3.2499    1.9923   -1.6549 H   0  0  0  0  0  0  0  0  0  0  0  0
  1 16  1  0  0  0  0
  2 15  1  0  0  0  0
  2 27  1  0  0  0  0
  3 15  2  0  0  0  0
  4 10  1  0  0  0  0
  4 11  1  0  0  0  0
  4 21  1  0  0  0  0
  5  9  1  0  0  0  0
  5 25  1  0  0  0  0
  5 26  1  0  0  0  0
  6  7  1  0  0  0  0
  6  8  1  0  0  0  0
  6 11  2  0  0  0  0
  7  9  1  0  0  0  0
  7 17  1  0  0  0  0
  7 18  1  0  0  0  0
  8 10  2  0  0  0  0
  8 12  1  0  0  0  0
  9 15  1  0  0  0  0
  9 19  1  6  0  0  0
 10 13  1  0  0  0  0
 11 20  1  0  0  0  0
 12 14  2  0  0  0  0
 12 22  1  0  0  0  0
 13 16  2  0  0  0  0
 13 23  1  0  0  0  0
 14 16  1  0  0  0  0
 14 24  1  0  0  0  0
M  END
>  <PUBCHEM_COMPOUND_CID>
9856996

>  <PUBCHEM_CONFORMER_RMSD>
0.6

>  <PUBCHEM_CONFORMER_DIVERSEORDER>
1
17
15
19
6
11
14
16
5
9
12
13
18
7
3
2
4
8
10

>  <PUBCHEM_MMFF94_PARTIAL_CHARGES>
23
1 -0.11
10 -0.15
11 -0.3
12 -0.15
13 -0.15
14 -0.15
15 0.66
16 0.11
2 -0.65
20 0.15
21 0.27
22 0.15
23 0.15
24 0.15
25 0.36
26 0.36
27 0.5
3 -0.57
4 0.03
5 -0.99
6 -0.18
7 0.18
9 0.33

>  <PUBCHEM_EFFECTIVE_ROTOR_COUNT>
3

>  <PUBCHEM_PHARMACOPHORE_FEATURES>
10
1 1 hydrophobe
1 2 acceptor
1 3 acceptor
1 4 cation
1 4 donor
1 5 cation
1 5 donor
3 2 3 15 anion
5 4 6 8 10 11 rings
6 8 10 12 13 14 16 rings

>  <PUBCHEM_HEAVY_ATOM_COUNT>
16

>  <PUBCHEM_ATOM_DEF_STEREO_COUNT>
1

>  <PUBCHEM_ATOM_UDEF_STEREO_COUNT>
0

>  <PUBCHEM_BOND_DEF_STEREO_COUNT>
0

>  <PUBCHEM_BOND_UDEF_STEREO_COUNT>
0

>  <PUBCHEM_ISOTOPIC_ATOM_COUNT>
0

>  <PUBCHEM_COMPONENT_COUNT>
1

>  <PUBCHEM_CACTVS_TAUTO_COUNT>
1

>  <PUBCHEM_CONFORMER_ID>
009667E400000001

>  <PUBCHEM_MMFF94_ENERGY>
21.0466

>  <PUBCHEM_FEATURE_SELFOVERLAP>
50.894

>  <PUBCHEM_SHAPE_FINGERPRINT>
11640471 11 17897169241491425364
13380535 76 18410294670965602035
13583140 156 17168139023441679835
14252887 29 11458712659804682608
15775835 57 18333737935238967004
16945 1 18336826377533705283
17134986 127 18410578378913635645
18186145 218 18272381874989339273
20645476 183 18408879646661047803
21524375 3 18335704922923093907
22094290 62 18335420158096341074
231179 274 17968936384086486621
23175994 123 15647323110040252050
23402539 116 18059846273071424276
23419403 2 16323922076747560138
23557571 272 17488738011970372966
23559900 14 17988922289224085616
2748010 2 17262138733348140635
3060560 45 18339925896348549358
474 4 18261115136595359761
4990 188 16845568691446478597
537710 114 18271523105353703161
58051976 378 18270678667485791717
7364860 26 18127413345488937191
7832392 63 18336824281853110036
9981440 41 17542499887858668280

>  <PUBCHEM_SHAPE_MULTIPOLES>
313.51
6.75
2.25
0.97
3
0.6
-0.15
-3.7
-0.12
-0.27
-0.29
-0.29
-0.18
-0.56

>  <PUBCHEM_SHAPE_SELFOVERLAP>
660.574

>  <PUBCHEM_SHAPE_VOLUME>
181.4

>  <PUBCHEM_COORDINATE_TYPE>
2
5
10

$$$$
9856996
 OpenBabel12092211553D

 27 28  0  0  1  0  0  0  0  0999 V2000
   -4.8081    1.4276   -0.1446 Br  0  0  0  0  0  0  0  0  0  0  0  0
    5.1811   -2.1375    1.4195 O   0  0  0  0  0  0  0  0  0  0  0  0
    4.2520   -0.8132    3.0081 O   0  0  0  0  0  0  0  0  0  0  0  0
   -0.9988   -2.3341   -0.5475 N   0  0  0  0  0  0  0  0  0  0  0  0
    2.0665   -2.6964    2.5732 N   0  0  0  0  0  0  0  0  0  0  0  0
    0.6524   -1.1965    0.4046 C   0  0  0  0  0  0  0  0  0  0  0  0
    1.9803   -0.8386    0.9432 C   0  0  0  0  0  0  0  0  0  0  0  0
   -0.5080   -0.3730    0.3963 C   0  0  0  0  0  0  0  0  0  0  0  0
    2.7929   -2.0378    1.4843 C   0  0  1  0  0  0  0  0  0  0  0  0
   -1.5295   -1.1104   -0.2063 C   0  0  0  0  0  0  0  0  0  0  0  0
    0.3192   -2.3955   -0.1824 C   0  0  0  0  0  0  0  0  0  0  0  0
   -0.7883    0.9330    0.8448 C   0  0  0  0  0  0  0  0  0  0  0  0
   -2.8223   -0.6050   -0.3834 C   0  0  0  0  0  0  0  0  0  0  0  0
   -2.0769    1.4517    0.6742 C   0  0  0  0  0  0  0  0  0  0  0  0
    4.1216   -1.5781    2.0606 C   0  0  0  0  0  0  0  0  0  0  0  0
   -3.0769    0.6928    0.0693 C   0  0  0  0  0  0  0  0  0  0  0  0
    1.8517   -0.1028    1.7491 H   0  0  0  0  0  0  0  0  0  0  0  0
    2.5585   -0.3246    0.1627 H   0  0  0  0  0  0  0  0  0  0  0  0
    2.9795   -2.7728    0.6926 H   0  0  0  0  0  0  0  0  0  0  0  0
    0.9002   -3.2868   -0.3743 H   0  0  0  0  0  0  0  0  0  0  0  0
   -1.5092   -3.0787   -1.0019 H   0  0  0  0  0  0  0  0  0  0  0  0
   -0.0242    1.5380    1.3240 H   0  0  0  0  0  0  0  0  0  0  0  0
   -3.5919   -1.2071   -0.8564 H   0  0  0  0  0  0  0  0  0  0  0  0
   -2.2819    2.4605    1.0255 H   0  0  0  0  0  0  0  0  0  0  0  0
    2.5708   -3.5341    2.8621 H   0  0  0  0  0  0  0  0  0  0  0  0
    1.1597   -3.0148    2.2334 H   0  0  0  0  0  0  0  0  0  0  0  0
    6.0357   -1.8426    1.8002 H   0  0  0  0  0  0  0  0  0  0  0  0
  1 16  1  0  0  0  0
  2 15  1  0  0  0  0
  2 27  1  0  0  0  0
  3 15  2  0  0  0  0
  4 10  1  0  0  0  0
  4 11  1  0  0  0  0
  4 21  1  0  0  0  0
  5  9  1  0  0  0  0
  5 25  1  0  0  0  0
  5 26  1  0  0  0  0
  6  7  1  0  0  0  0
  6  8  1  0  0  0  0
  6 11  2  0  0  0  0
  7  9  1  0  0  0  0
  7 17  1  0  0  0  0
  7 18  1  0  0  0  0
  8 10  2  0  0  0  0
  8 12  1  0  0  0  0
  9 15  1  0  0  0  0
  9 19  1  6  0  0  0
 10 13  1  0  0  0  0
 11 20  1  0  0  0  0
 12 14  2  0  0  0  0
 12 22  1  0  0  0  0
 13 16  2  0  0  0  0
 13 23  1  0  0  0  0
 14 16  1  0  0  0  0
 14 24  1  0  0  0  0
M  END
>  <PUBCHEM_COMPOUND_CID>
9856996

>  <PUBCHEM_CONFORMER_RMSD>
0.6

>  <PUBCHEM_CONFORMER_DIVERSEORDER>
1
17
15
19
6
11
14
16
5
9
12
13
18
7
3
2
4
8
10

>  <PUBCHEM_MMFF94_PARTIAL_CHARGES>
23
1 -0.11
10 -0.15
11 -0.3
12 -0.15
13 -0.15
14 -0.15
15 0.66
16 0.11
2 -0.65
20 0.15
21 0.27
22 0.15
23 0.15
24 0.15
25 0.36
26 0.36
27 0.5
3 -0.57
4 0.03
5 -0.99
6 -0.18
7 0.18
9 0.33

>  <PUBCHEM_EFFECTIVE_ROTOR_COUNT>
3

>  <PUBCHEM_PHARMACOPHORE_FEATURES>
10
1 1 hydrophobe
1 2 acceptor
1 3 acceptor
1 4 cation
1 4 donor
1 5 cation
1 5 donor
3 2 3 15 anion
5 4 6 8 10 11 rings
6 8 10 12 13 14 16 rings

>  <PUBCHEM_HEAVY_ATOM_COUNT>
16

>  <PUBCHEM_ATOM_DEF_STEREO_COUNT>
1

>  <PUBCHEM_ATOM_UDEF_STEREO_COUNT>
0

>  <PUBCHEM_BOND_DEF_STEREO_COUNT>
0

>  <PUBCHEM_BOND_UDEF_STEREO_COUNT>
0

>  <PUBCHEM_ISOTOPIC_ATOM_COUNT>
0

>  <PUBCHEM_COMPONENT_COUNT>
1

>  <PUBCHEM_CACTVS_TAUTO_COUNT>
1

>  <PUBCHEM_CONFORMER_ID>
009667E400000001

>  <PUBCHEM_MMFF94_ENERGY>
21.0466

>  <PUBCHEM_FEATURE_SELFOVERLAP>
50.894

>  <PUBCHEM_SHAPE_FINGERPRINT>
11640471 11 17897169241491425364
13380535 76 18410294670965602035
13583140 156 17168139023441679835
14252887 29 11458712659804682608
15775835 57 18333737935238967004
16945 1 18336826377533705283
17134986 127 18410578378913635645
18186145 218 18272381874989339273
20645476 183 18408879646661047803
21524375 3 18335704922923093907
22094290 62 18335420158096341074
231179 274 17968936384086486621
23175994 123 15647323110040252050
23402539 116 18059846273071424276
23419403 2 16323922076747560138
23557571 272 17488738011970372966
23559900 14 17988922289224085616
2748010 2 17262138733348140635
3060560 45 18339925896348549358
474 4 18261115136595359761
4990 188 16845568691446478597
537710 114 18271523105353703161
58051976 378 18270678667485791717
7364860 26 18127413345488937191
7832392 63 18336824281853110036
9981440 41 17542499887858668280

>  <PUBCHEM_SHAPE_MULTIPOLES>
313.51
6.75
2.25
0.97
3
0.6
-0.15
-3.7
-0.12
-0.27
-0.29
-0.29
-0.18
-0.56

>  <PUBCHEM_SHAPE_SELFOVERLAP>
660.574

>  <PUBCHEM_SHAPE_VOLUME>
181.4

>  <PUBCHEM_COORDINATE_TYPE>
2
5
10

$$$$
9856996
 OpenBabel12092211553D

 27 28  0  0  1  0  0  0  0  0999 V2000
   -4.8081    1.4276   -0.1446 Br  0  0  0  0  0  0  0  0  0  0  0  0
    3.1105   -1.2086   -1.4665 O   0  0  0  0  0  0  0  0  0  0  0  0
    3.6137   -3.3860   -1.0839 O   0  0  0  0  0  0  0  0  0  0  0  0
   -0.9988   -2.3341   -0.5475 N   0  0  0  0  0  0  0  0  0  0  0  0
    4.3239   -1.5061    1.3651 N   0  0  0  0  0  0  0  0  0  0  0  0
    0.6524   -1.1965    0.4046 C   0  0  0  0  0  0  0  0  0  0  0  0
    1.9803   -0.8386    0.9432 C   0  0  0  0  0  0  0  0  0  0  0  0
   -0.5080   -0.3730    0.3963 C   0  0  0  0  0  0  0  0  0  0  0  0
    3.0450   -1.9515    0.8054 C   0  0  1  0  0  0  0  0  0  0  0  0
   -1.5295   -1.1104   -0.2063 C   0  0  0  0  0  0  0  0  0  0  0  0
    0.3192   -2.3955   -0.1824 C   0  0  0  0  0  0  0  0  0  0  0  0
   -0.7883    0.9330    0.8448 C   0  0  0  0  0  0  0  0  0  0  0  0
   -2.8223   -0.6050   -0.3834 C   0  0  0  0  0  0  0  0  0  0  0  0
   -2.0769    1.4517    0.6742 C   0  0  0  0  0  0  0  0  0  0  0  0
    3.2991   -2.2826   -0.6557 C   0  0  0  0  0  0  0  0  0  0  0  0
   -3.0769    0.6928    0.0693 C   0  0  0  0  0  0  0  0  0  0  0  0
    1.8754   -0.5755    2.0049 H   0  0  0  0  0  0  0  0  0  0  0  0
    2.3361    0.0745    0.4459 H   0  0  0  0  0  0  0  0  0  0  0  0
    2.7303   -2.8609    1.3306 H   0  0  0  0  0  0  0  0  0  0  0  0
    0.9002   -3.2868   -0.3743 H   0  0  0  0  0  0  0  0  0  0  0  0
   -1.5092   -3.0787   -1.0019 H   0  0  0  0  0  0  0  0  0  0  0  0
   -0.0242    1.5380    1.3240 H   0  0  0  0  0  0  0  0  0  0  0  0
   -3.5919   -1.2071   -0.8564 H   0  0  0  0  0  0  0  0  0  0  0  0
   -2.2819    2.4605    1.0255 H   0  0  0  0  0  0  0  0  0  0  0  0
    4.9912   -2.2767    1.3468 H   0  0  0  0  0  0  0  0  0  0  0  0
    4.1990   -1.2629    2.3471 H   0  0  0  0  0  0  0  0  0  0  0  0
    3.2691   -1.4299   -2.4088 H   0  0  0  0  0  0  0  0  0  0  0  0
  1 16  1  0  0  0  0
  2 15  1  0  0  0  0
  2 27  1  0  0  0  0
  3 15  2  0  0  0  0
  4 10  1  0  0  0  0
  4 11  1  0  0  0  0
  4 21  1  0  0  0  0
  5  9  1  0  0  0  0
  5 25  1  0  0  0  0
  5 26  1  0  0  0  0
  6  7  1  0  0  0  0
  6  8  1  0  0  0  0
  6 11  2  0  0  0  0
  7  9  1  0  0  0  0
  7 17  1  0  0  0  0
  7 18  1  0  0  0  0
  8 10  2  0  0  0  0
  8 12  1  0  0  0  0
  9 15  1  0  0  0  0
  9 19  1  1  0  0  0
 10 13  1  0  0  0  0
 11 20  1  0  0  0  0
 12 14  2  0  0  0  0
 12 22  1  0  0  0  0
 13 16  2  0  0  0  0
 13 23  1  0  0  0  0
 14 16  1  0  0  0  0
 14 24  1  0  0  0  0
M  END
>  <PUBCHEM_COMPOUND_CID>
9856996

>  <PUBCHEM_CONFORMER_RMSD>
0.6

>  <PUBCHEM_CONFORMER_DIVERSEORDER>
1
17
15
19
6
11
14
16
5
9
12
13
18
7
3
2
4
8
10

>  <PUBCHEM_MMFF94_PARTIAL_CHARGES>
23
1 -0.11
10 -0.15
11 -0.3
12 -0.15
13 -0.15
14 -0.15
15 0.66
16 0.11
2 -0.65
20 0.15
21 0.27
22 0.15
23 0.15
24 0.15
25 0.36
26 0.36
27 0.5
3 -0.57
4 0.03
5 -0.99
6 -0.18
7 0.18
9 0.33

>  <PUBCHEM_EFFECTIVE_ROTOR_COUNT>
3

>  <PUBCHEM_PHARMACOPHORE_FEATURES>
10
1 1 hydrophobe
1 2 acceptor
1 3 acceptor
1 4 cation
1 4 donor
1 5 cation
1 5 donor
3 2 3 15 anion
5 4 6 8 10 11 rings
6 8 10 12 13 14 16 rings

>  <PUBCHEM_HEAVY_ATOM_COUNT>
16

>  <PUBCHEM_ATOM_DEF_STEREO_COUNT>
1

>  <PUBCHEM_ATOM_UDEF_STEREO_COUNT>
0

>  <PUBCHEM_BOND_DEF_STEREO_COUNT>
0

>  <PUBCHEM_BOND_UDEF_STEREO_COUNT>
0

>  <PUBCHEM_ISOTOPIC_ATOM_COUNT>
0

>  <PUBCHEM_COMPONENT_COUNT>
1

>  <PUBCHEM_CACTVS_TAUTO_COUNT>
1

>  <PUBCHEM_CONFORMER_ID>
009667E400000001

>  <PUBCHEM_MMFF94_ENERGY>
21.0466

>  <PUBCHEM_FEATURE_SELFOVERLAP>
50.894

>  <PUBCHEM_SHAPE_FINGERPRINT>
11640471 11 17897169241491425364
13380535 76 18410294670965602035
13583140 156 17168139023441679835
14252887 29 11458712659804682608
15775835 57 18333737935238967004
16945 1 18336826377533705283
17134986 127 18410578378913635645
18186145 218 18272381874989339273
20645476 183 18408879646661047803
21524375 3 18335704922923093907
22094290 62 18335420158096341074
231179 274 17968936384086486621
23175994 123 15647323110040252050
23402539 116 18059846273071424276
23419403 2 16323922076747560138
23557571 272 17488738011970372966
23559900 14 17988922289224085616
2748010 2 17262138733348140635
3060560 45 18339925896348549358
474 4 18261115136595359761
4990 188 16845568691446478597
537710 114 18271523105353703161
58051976 378 18270678667485791717
7364860 26 18127413345488937191
7832392 63 18336824281853110036
9981440 41 17542499887858668280

>  <PUBCHEM_SHAPE_MULTIPOLES>
313.51
6.75
2.25
0.97
3
0.6
-0.15
-3.7
-0.12
-0.27
-0.29
-0.29
-0.18
-0.56

>  <PUBCHEM_SHAPE_SELFOVERLAP>
660.574

>  <PUBCHEM_SHAPE_VOLUME>
181.4

>  <PUBCHEM_COORDINATE_TYPE>
2
5
10

$$$$
9856996
 OpenBabel12092211553D

 27 28  0  0  1  0  0  0  0  0999 V2000
   -4.8081    1.4276   -0.1446 Br  0  0  0  0  0  0  0  0  0  0  0  0
    2.4954   -2.0805    4.1653 O   0  0  0  0  0  0  0  0  0  0  0  0
    0.4649   -2.2602    3.1726 O   0  0  0  0  0  0  0  0  0  0  0  0
   -0.9988   -2.3341   -0.5475 N   0  0  0  0  0  0  0  0  0  0  0  0
    3.3400   -0.1535    2.8920 N   0  0  0  0  0  0  0  0  0  0  0  0
    0.6524   -1.1965    0.4046 C   0  0  0  0  0  0  0  0  0  0  0  0
    1.9803   -0.8386    0.9432 C   0  0  0  0  0  0  0  0  0  0  0  0
   -0.5080   -0.3730    0.3963 C   0  0  0  0  0  0  0  0  0  0  0  0
    1.9848   -0.4940    2.4506 C   0  0  1  0  0  0  0  0  0  0  0  0
   -1.5295   -1.1104   -0.2063 C   0  0  0  0  0  0  0  0  0  0  0  0
    0.3192   -2.3955   -0.1824 C   0  0  0  0  0  0  0  0  0  0  0  0
   -0.7883    0.9330    0.8448 C   0  0  0  0  0  0  0  0  0  0  0  0
   -2.8223   -0.6050   -0.3834 C   0  0  0  0  0  0  0  0  0  0  0  0
   -2.0769    1.4517    0.6742 C   0  0  0  0  0  0  0  0  0  0  0  0
    1.5412   -1.6861    3.2819 C   0  0  0  0  0  0  0  0  0  0  0  0
   -3.0769    0.6928    0.0693 C   0  0  0  0  0  0  0  0  0  0  0  0
    2.3739    0.0192    0.3806 H   0  0  0  0  0  0  0  0  0  0  0  0
    2.6803   -1.6639    0.7524 H   0  0  0  0  0  0  0  0  0  0  0  0
    1.3244    0.3556    2.6595 H   0  0  0  0  0  0  0  0  0  0  0  0
    0.9002   -3.2868   -0.3743 H   0  0  0  0  0  0  0  0  0  0  0  0
   -1.5092   -3.0787   -1.0019 H   0  0  0  0  0  0  0  0  0  0  0  0
   -0.0242    1.5380    1.3240 H   0  0  0  0  0  0  0  0  0  0  0  0
   -3.5919   -1.2071   -0.8564 H   0  0  0  0  0  0  0  0  0  0  0  0
   -2.2819    2.4605    1.0255 H   0  0  0  0  0  0  0  0  0  0  0  0
    3.3152    0.1545    3.8635 H   0  0  0  0  0  0  0  0  0  0  0  0
    3.6842    0.6397    2.3521 H   0  0  0  0  0  0  0  0  0  0  0  0
    2.2062   -2.8544    4.6942 H   0  0  0  0  0  0  0  0  0  0  0  0
  1 16  1  0  0  0  0
  2 15  1  0  0  0  0
  2 27  1  0  0  0  0
  3 15  2  0  0  0  0
  4 10  1  0  0  0  0
  4 11  1  0  0  0  0
  4 21  1  0  0  0  0
  5  9  1  0  0  0  0
  5 25  1  0  0  0  0
  5 26  1  0  0  0  0
  6  7  1  0  0  0  0
  6  8  1  0  0  0  0
  6 11  2  0  0  0  0
  7  9  1  0  0  0  0
  7 17  1  0  0  0  0
  7 18  1  0  0  0  0
  8 10  2  0  0  0  0
  8 12  1  0  0  0  0
  9 15  1  0  0  0  0
  9 19  1  1  0  0  0
 10 13  1  0  0  0  0
 11 20  1  0  0  0  0
 12 14  2  0  0  0  0
 12 22  1  0  0  0  0
 13 16  2  0  0  0  0
 13 23  1  0  0  0  0
 14 16  1  0  0  0  0
 14 24  1  0  0  0  0
M  END
>  <PUBCHEM_COMPOUND_CID>
9856996

>  <PUBCHEM_CONFORMER_RMSD>
0.6

>  <PUBCHEM_CONFORMER_DIVERSEORDER>
1
17
15
19
6
11
14
16
5
9
12
13
18
7
3
2
4
8
10

>  <PUBCHEM_MMFF94_PARTIAL_CHARGES>
23
1 -0.11
10 -0.15
11 -0.3
12 -0.15
13 -0.15
14 -0.15
15 0.66
16 0.11
2 -0.65
20 0.15
21 0.27
22 0.15
23 0.15
24 0.15
25 0.36
26 0.36
27 0.5
3 -0.57
4 0.03
5 -0.99
6 -0.18
7 0.18
9 0.33

>  <PUBCHEM_EFFECTIVE_ROTOR_COUNT>
3

>  <PUBCHEM_PHARMACOPHORE_FEATURES>
10
1 1 hydrophobe
1 2 acceptor
1 3 acceptor
1 4 cation
1 4 donor
1 5 cation
1 5 donor
3 2 3 15 anion
5 4 6 8 10 11 rings
6 8 10 12 13 14 16 rings

>  <PUBCHEM_HEAVY_ATOM_COUNT>
16

>  <PUBCHEM_ATOM_DEF_STEREO_COUNT>
1

>  <PUBCHEM_ATOM_UDEF_STEREO_COUNT>
0

>  <PUBCHEM_BOND_DEF_STEREO_COUNT>
0

>  <PUBCHEM_BOND_UDEF_STEREO_COUNT>
0

>  <PUBCHEM_ISOTOPIC_ATOM_COUNT>
0

>  <PUBCHEM_COMPONENT_COUNT>
1

>  <PUBCHEM_CACTVS_TAUTO_COUNT>
1

>  <PUBCHEM_CONFORMER_ID>
009667E400000001

>  <PUBCHEM_MMFF94_ENERGY>
21.0466

>  <PUBCHEM_FEATURE_SELFOVERLAP>
50.894

>  <PUBCHEM_SHAPE_FINGERPRINT>
11640471 11 17897169241491425364
13380535 76 18410294670965602035
13583140 156 17168139023441679835
14252887 29 11458712659804682608
15775835 57 18333737935238967004
16945 1 18336826377533705283
17134986 127 18410578378913635645
18186145 218 18272381874989339273
20645476 183 18408879646661047803
21524375 3 18335704922923093907
22094290 62 18335420158096341074
231179 274 17968936384086486621
23175994 123 15647323110040252050
23402539 116 18059846273071424276
23419403 2 16323922076747560138
23557571 272 17488738011970372966
23559900 14 17988922289224085616
2748010 2 17262138733348140635
3060560 45 18339925896348549358
474 4 18261115136595359761
4990 188 16845568691446478597
537710 114 18271523105353703161
58051976 378 18270678667485791717
7364860 26 18127413345488937191
7832392 63 18336824281853110036
9981440 41 17542499887858668280

>  <PUBCHEM_SHAPE_MULTIPOLES>
313.51
6.75
2.25
0.97
3
0.6
-0.15
-3.7
-0.12
-0.27
-0.29
-0.29
-0.18
-0.56

>  <PUBCHEM_SHAPE_SELFOVERLAP>
660.574

>  <PUBCHEM_SHAPE_VOLUME>
181.4

>  <PUBCHEM_COORDINATE_TYPE>
2
5
10

$$$$
9856996
 OpenBabel12092211553D

 27 28  0  0  1  0  0  0  0  0999 V2000
   -4.8081    1.4276   -0.1446 Br  0  0  0  0  0  0  0  0  0  0  0  0
    0.3806   -1.4108    3.9933 O   0  0  0  0  0  0  0  0  0  0  0  0
    0.9529    0.6925    3.3696 O   0  0  0  0  0  0  0  0  0  0  0  0
   -0.9988   -2.3341   -0.5475 N   0  0  0  0  0  0  0  0  0  0  0  0
    2.0247   -2.6389    2.6381 N   0  0  0  0  0  0  0  0  0  0  0  0
    0.6524   -1.1965    0.4046 C   0  0  0  0  0  0  0  0  0  0  0  0
    1.9803   -0.8386    0.9432 C   0  0  0  0  0  0  0  0  0  0  0  0
   -0.5080   -0.3730    0.3963 C   0  0  0  0  0  0  0  0  0  0  0  0
    2.1808   -1.1963    2.4342 C   0  0  1  0  0  0  0  0  0  0  0  0
   -1.5295   -1.1104   -0.2063 C   0  0  0  0  0  0  0  0  0  0  0  0
    0.3192   -2.3955   -0.1824 C   0  0  0  0  0  0  0  0  0  0  0  0
   -0.7883    0.9330    0.8448 C   0  0  0  0  0  0  0  0  0  0  0  0
   -2.8223   -0.6050   -0.3834 C   0  0  0  0  0  0  0  0  0  0  0  0
   -2.0769    1.4517    0.6742 C   0  0  0  0  0  0  0  0  0  0  0  0
    1.1346   -0.5167    3.3015 C   0  0  0  0  0  0  0  0  0  0  0  0
   -3.0769    0.6928    0.0693 C   0  0  0  0  0  0  0  0  0  0  0  0
    2.1396    0.2406    0.8113 H   0  0  0  0  0  0  0  0  0  0  0  0
    2.7572   -1.3283    0.3397 H   0  0  0  0  0  0  0  0  0  0  0  0
    3.1792   -0.9000    2.7765 H   0  0  0  0  0  0  0  0  0  0  0  0
    0.9002   -3.2868   -0.3743 H   0  0  0  0  0  0  0  0  0  0  0  0
   -1.5092   -3.0787   -1.0019 H   0  0  0  0  0  0  0  0  0  0  0  0
   -0.0242    1.5380    1.3240 H   0  0  0  0  0  0  0  0  0  0  0  0
   -3.5919   -1.2071   -0.8564 H   0  0  0  0  0  0  0  0  0  0  0  0
   -2.2819    2.4605    1.0255 H   0  0  0  0  0  0  0  0  0  0  0  0
    2.2439   -2.8725    3.6060 H   0  0  0  0  0  0  0  0  0  0  0  0
    2.7038   -3.1388    2.0654 H   0  0  0  0  0  0  0  0  0  0  0  0
   -0.2973   -0.9668    4.5460 H   0  0  0  0  0  0  0  0  0  0  0  0
  1 16  1  0  0  0  0
  2 15  1  0  0  0  0
  2 27  1  0  0  0  0
  3 15  2  0  0  0  0
  4 10  1  0  0  0  0
  4 11  1  0  0  0  0
  4 21  1  0  0  0  0
  5  9  1  0  0  0  0
  5 25  1  0  0  0  0
  5 26  1  0  0  0  0
  6  7  1  0  0  0  0
  6  8  1  0  0  0  0
  6 11  2  0  0  0  0
  7  9  1  0  0  0  0
  7 17  1  0  0  0  0
  7 18  1  0  0  0  0
  8 10  2  0  0  0  0
  8 12  1  0  0  0  0
  9 15  1  0  0  0  0
  9 19  1  1  0  0  0
 10 13  1  0  0  0  0
 11 20  1  0  0  0  0
 12 14  2  0  0  0  0
 12 22  1  0  0  0  0
 13 16  2  0  0  0  0
 13 23  1  0  0  0  0
 14 16  1  0  0  0  0
 14 24  1  0  0  0  0
M  END
>  <PUBCHEM_COMPOUND_CID>
9856996

>  <PUBCHEM_CONFORMER_RMSD>
0.6

>  <PUBCHEM_CONFORMER_DIVERSEORDER>
1
17
15
19
6
11
14
16
5
9
12
13
18
7
3
2
4
8
10

>  <PUBCHEM_MMFF94_PARTIAL_CHARGES>
23
1 -0.11
10 -0.15
11 -0.3
12 -0.15
13 -0.15
14 -0.15
15 0.66
16 0.11
2 -0.65
20 0.15
21 0.27
22 0.15
23 0.15
24 0.15
25 0.36
26 0.36
27 0.5
3 -0.57
4 0.03
5 -0.99
6 -0.18
7 0.18
9 0.33

>  <PUBCHEM_EFFECTIVE_ROTOR_COUNT>
3

>  <PUBCHEM_PHARMACOPHORE_FEATURES>
10
1 1 hydrophobe
1 2 acceptor
1 3 acceptor
1 4 cation
1 4 donor
1 5 cation
1 5 donor
3 2 3 15 anion
5 4 6 8 10 11 rings
6 8 10 12 13 14 16 rings

>  <PUBCHEM_HEAVY_ATOM_COUNT>
16

>  <PUBCHEM_ATOM_DEF_STEREO_COUNT>
1

>  <PUBCHEM_ATOM_UDEF_STEREO_COUNT>
0

>  <PUBCHEM_BOND_DEF_STEREO_COUNT>
0

>  <PUBCHEM_BOND_UDEF_STEREO_COUNT>
0

>  <PUBCHEM_ISOTOPIC_ATOM_COUNT>
0

>  <PUBCHEM_COMPONENT_COUNT>
1

>  <PUBCHEM_CACTVS_TAUTO_COUNT>
1

>  <PUBCHEM_CONFORMER_ID>
009667E400000001

>  <PUBCHEM_MMFF94_ENERGY>
21.0466

>  <PUBCHEM_FEATURE_SELFOVERLAP>
50.894

>  <PUBCHEM_SHAPE_FINGERPRINT>
11640471 11 17897169241491425364
13380535 76 18410294670965602035
13583140 156 17168139023441679835
14252887 29 11458712659804682608
15775835 57 18333737935238967004
16945 1 18336826377533705283
17134986 127 18410578378913635645
18186145 218 18272381874989339273
20645476 183 18408879646661047803
21524375 3 18335704922923093907
22094290 62 18335420158096341074
231179 274 17968936384086486621
23175994 123 15647323110040252050
23402539 116 18059846273071424276
23419403 2 16323922076747560138
23557571 272 17488738011970372966
23559900 14 17988922289224085616
2748010 2 17262138733348140635
3060560 45 18339925896348549358
474 4 18261115136595359761
4990 188 16845568691446478597
537710 114 18271523105353703161
58051976 378 18270678667485791717
7364860 26 18127413345488937191
7832392 63 18336824281853110036
9981440 41 17542499887858668280

>  <PUBCHEM_SHAPE_MULTIPOLES>
313.51
6.75
2.25
0.97
3
0.6
-0.15
-3.7
-0.12
-0.27
-0.29
-0.29
-0.18
-0.56

>  <PUBCHEM_SHAPE_SELFOVERLAP>
660.574

>  <PUBCHEM_SHAPE_VOLUME>
181.4

>  <PUBCHEM_COORDINATE_TYPE>
2
5
10

$$$$
9856996
 OpenBabel12092211553D

 27 28  0  0  1  0  0  0  0  0999 V2000
   -4.8081    1.4276   -0.1446 Br  0  0  0  0  0  0  0  0  0  0  0  0
    2.7446   -0.4916   -2.4458 O   0  0  0  0  0  0  0  0  0  0  0  0
    3.6049   -2.2088   -1.2410 O   0  0  0  0  0  0  0  0  0  0  0  0
   -0.9988   -2.3341   -0.5475 N   0  0  0  0  0  0  0  0  0  0  0  0
    2.3346    1.0692   -0.5900 N   0  0  0  0  0  0  0  0  0  0  0  0
    0.6524   -1.1965    0.4046 C   0  0  0  0  0  0  0  0  0  0  0  0
    1.9803   -0.8386    0.9432 C   0  0  0  0  0  0  0  0  0  0  0  0
   -0.5080   -0.3730    0.3963 C   0  0  0  0  0  0  0  0  0  0  0  0
    2.9257   -0.1720   -0.0830 C   0  0  1  0  0  0  0  0  0  0  0  0
   -1.5295   -1.1104   -0.2063 C   0  0  0  0  0  0  0  0  0  0  0  0
    0.3192   -2.3955   -0.1824 C   0  0  0  0  0  0  0  0  0  0  0  0
   -0.7883    0.9330    0.8448 C   0  0  0  0  0  0  0  0  0  0  0  0
   -2.8223   -0.6050   -0.3834 C   0  0  0  0  0  0  0  0  0  0  0  0
   -2.0769    1.4517    0.6742 C   0  0  0  0  0  0  0  0  0  0  0  0
    3.1454   -1.0745   -1.2856 C   0  0  0  0  0  0  0  0  0  0  0  0
   -3.0769    0.6928    0.0693 C   0  0  0  0  0  0  0  0  0  0  0  0
    2.4622   -1.7450    1.3352 H   0  0  0  0  0  0  0  0  0  0  0  0
    1.8503   -0.1745    1.8091 H   0  0  0  0  0  0  0  0  0  0  0  0
    3.8949    0.0619    0.3727 H   0  0  0  0  0  0  0  0  0  0  0  0
    0.9002   -3.2868   -0.3743 H   0  0  0  0  0  0  0  0  0  0  0  0
   -1.5092   -3.0787   -1.0019 H   0  0  0  0  0  0  0  0  0  0  0  0
   -0.0242    1.5380    1.3240 H   0  0  0  0  0  0  0  0  0  0  0  0
   -3.5919   -1.2071   -0.8564 H   0  0  0  0  0  0  0  0  0  0  0  0
   -2.2819    2.4605    1.0255 H   0  0  0  0  0  0  0  0  0  0  0  0
    3.0027    1.5419   -1.1980 H   0  0  0  0  0  0  0  0  0  0  0  0
    2.1600    1.7050    0.1874 H   0  0  0  0  0  0  0  0  0  0  0  0
    2.8824   -1.0812   -3.2175 H   0  0  0  0  0  0  0  0  0  0  0  0
  1 16  1  0  0  0  0
  2 15  1  0  0  0  0
  2 27  1  0  0  0  0
  3 15  2  0  0  0  0
  4 10  1  0  0  0  0
  4 11  1  0  0  0  0
  4 21  1  0  0  0  0
  5  9  1  0  0  0  0
  5 25  1  0  0  0  0
  5 26  1  0  0  0  0
  6  7  1  0  0  0  0
  6  8  1  0  0  0  0
  6 11  2  0  0  0  0
  7  9  1  0  0  0  0
  7 17  1  0  0  0  0
  7 18  1  0  0  0  0
  8 10  2  0  0  0  0
  8 12  1  0  0  0  0
  9 15  1  0  0  0  0
  9 19  1  1  0  0  0
 10 13  1  0  0  0  0
 11 20  1  0  0  0  0
 12 14  2  0  0  0  0
 12 22  1  0  0  0  0
 13 16  2  0  0  0  0
 13 23  1  0  0  0  0
 14 16  1  0  0  0  0
 14 24  1  0  0  0  0
M  END
>  <PUBCHEM_COMPOUND_CID>
9856996

>  <PUBCHEM_CONFORMER_RMSD>
0.6

>  <PUBCHEM_CONFORMER_DIVERSEORDER>
1
17
15
19
6
11
14
16
5
9
12
13
18
7
3
2
4
8
10

>  <PUBCHEM_MMFF94_PARTIAL_CHARGES>
23
1 -0.11
10 -0.15
11 -0.3
12 -0.15
13 -0.15
14 -0.15
15 0.66
16 0.11
2 -0.65
20 0.15
21 0.27
22 0.15
23 0.15
24 0.15
25 0.36
26 0.36
27 0.5
3 -0.57
4 0.03
5 -0.99
6 -0.18
7 0.18
9 0.33

>  <PUBCHEM_EFFECTIVE_ROTOR_COUNT>
3

>  <PUBCHEM_PHARMACOPHORE_FEATURES>
10
1 1 hydrophobe
1 2 acceptor
1 3 acceptor
1 4 cation
1 4 donor
1 5 cation
1 5 donor
3 2 3 15 anion
5 4 6 8 10 11 rings
6 8 10 12 13 14 16 rings

>  <PUBCHEM_HEAVY_ATOM_COUNT>
16

>  <PUBCHEM_ATOM_DEF_STEREO_COUNT>
1

>  <PUBCHEM_ATOM_UDEF_STEREO_COUNT>
0

>  <PUBCHEM_BOND_DEF_STEREO_COUNT>
0

>  <PUBCHEM_BOND_UDEF_STEREO_COUNT>
0

>  <PUBCHEM_ISOTOPIC_ATOM_COUNT>
0

>  <PUBCHEM_COMPONENT_COUNT>
1

>  <PUBCHEM_CACTVS_TAUTO_COUNT>
1

>  <PUBCHEM_CONFORMER_ID>
009667E400000001

>  <PUBCHEM_MMFF94_ENERGY>
21.0466

>  <PUBCHEM_FEATURE_SELFOVERLAP>
50.894

>  <PUBCHEM_SHAPE_FINGERPRINT>
11640471 11 17897169241491425364
13380535 76 18410294670965602035
13583140 156 17168139023441679835
14252887 29 11458712659804682608
15775835 57 18333737935238967004
16945 1 18336826377533705283
17134986 127 18410578378913635645
18186145 218 18272381874989339273
20645476 183 18408879646661047803
21524375 3 18335704922923093907
22094290 62 18335420158096341074
231179 274 17968936384086486621
23175994 123 15647323110040252050
23402539 116 18059846273071424276
23419403 2 16323922076747560138
23557571 272 17488738011970372966
23559900 14 17988922289224085616
2748010 2 17262138733348140635
3060560 45 18339925896348549358
474 4 18261115136595359761
4990 188 16845568691446478597
537710 114 18271523105353703161
58051976 378 18270678667485791717
7364860 26 18127413345488937191
7832392 63 18336824281853110036
9981440 41 17542499887858668280

>  <PUBCHEM_SHAPE_MULTIPOLES>
313.51
6.75
2.25
0.97
3
0.6
-0.15
-3.7
-0.12
-0.27
-0.29
-0.29
-0.18
-0.56

>  <PUBCHEM_SHAPE_SELFOVERLAP>
660.574

>  <PUBCHEM_SHAPE_VOLUME>
181.4

>  <PUBCHEM_COORDINATE_TYPE>
2
5
10

$$$$
9856996
 OpenBabel12092211553D

 27 28  0  0  1  0  0  0  0  0999 V2000
   -4.8081    1.4276   -0.1446 Br  0  0  0  0  0  0  0  0  0  0  0  0
    0.8216   -0.5940    3.3516 O   0  0  0  0  0  0  0  0  0  0  0  0
    1.3309   -2.7003    4.0186 O   0  0  0  0  0  0  0  0  0  0  0  0
   -0.9988   -2.3341   -0.5475 N   0  0  0  0  0  0  0  0  0  0  0  0
    2.5791   -3.1444    1.6072 N   0  0  0  0  0  0  0  0  0  0  0  0
    0.6524   -1.1965    0.4046 C   0  0  0  0  0  0  0  0  0  0  0  0
    1.9803   -0.8386    0.9432 C   0  0  0  0  0  0  0  0  0  0  0  0
   -0.5080   -0.3730    0.3963 C   0  0  0  0  0  0  0  0  0  0  0  0
    2.4766   -1.7614    2.0804 C   0  0  1  0  0  0  0  0  0  0  0  0
   -1.5295   -1.1104   -0.2063 C   0  0  0  0  0  0  0  0  0  0  0  0
    0.3192   -2.3955   -0.1824 C   0  0  0  0  0  0  0  0  0  0  0  0
   -0.7883    0.9330    0.8448 C   0  0  0  0  0  0  0  0  0  0  0  0
   -2.8223   -0.6050   -0.3834 C   0  0  0  0  0  0  0  0  0  0  0  0
   -2.0769    1.4517    0.6742 C   0  0  0  0  0  0  0  0  0  0  0  0
    1.4963   -1.7684    3.2414 C   0  0  0  0  0  0  0  0  0  0  0  0
   -3.0769    0.6928    0.0693 C   0  0  0  0  0  0  0  0  0  0  0  0
    1.9484    0.1959    1.3122 H   0  0  0  0  0  0  0  0  0  0  0  0
    2.7127   -0.8381    0.1239 H   0  0  0  0  0  0  0  0  0  0  0  0
    3.4604   -1.4411    2.4427 H   0  0  0  0  0  0  0  0  0  0  0  0
    0.9002   -3.2868   -0.3743 H   0  0  0  0  0  0  0  0  0  0  0  0
   -1.5092   -3.0787   -1.0019 H   0  0  0  0  0  0  0  0  0  0  0  0
   -0.0242    1.5380    1.3240 H   0  0  0  0  0  0  0  0  0  0  0  0
   -3.5919   -1.2071   -0.8564 H   0  0  0  0  0  0  0  0  0  0  0  0
   -2.2819    2.4605    1.0255 H   0  0  0  0  0  0  0  0  0  0  0  0
    2.9882   -3.7257    2.3380 H   0  0  0  0  0  0  0  0  0  0  0  0
    3.2227   -3.1869    0.8179 H   0  0  0  0  0  0  0  0  0  0  0  0
    0.1954   -0.6019    4.1067 H   0  0  0  0  0  0  0  0  0  0  0  0
  1 16  1  0  0  0  0
  2 15  1  0  0  0  0
  2 27  1  0  0  0  0
  3 15  2  0  0  0  0
  4 10  1  0  0  0  0
  4 11  1  0  0  0  0
  4 21  1  0  0  0  0
  5  9  1  0  0  0  0
  5 25  1  0  0  0  0
  5 26  1  0  0  0  0
  6  7  1  0  0  0  0
  6  8  1  0  0  0  0
  6 11  2  0  0  0  0
  7  9  1  0  0  0  0
  7 17  1  0  0  0  0
  7 18  1  0  0  0  0
  8 10  2  0  0  0  0
  8 12  1  0  0  0  0
  9 15  1  0  0  0  0
  9 19  1  1  0  0  0
 10 13  1  0  0  0  0
 11 20  1  0  0  0  0
 12 14  2  0  0  0  0
 12 22  1  0  0  0  0
 13 16  2  0  0  0  0
 13 23  1  0  0  0  0
 14 16  1  0  0  0  0
 14 24  1  0  0  0  0
M  END
>  <PUBCHEM_COMPOUND_CID>
9856996

>  <PUBCHEM_CONFORMER_RMSD>
0.6

>  <PUBCHEM_CONFORMER_DIVERSEORDER>
1
17
15
19
6
11
14
16
5
9
12
13
18
7
3
2
4
8
10

>  <PUBCHEM_MMFF94_PARTIAL_CHARGES>
23
1 -0.11
10 -0.15
11 -0.3
12 -0.15
13 -0.15
14 -0.15
15 0.66
16 0.11
2 -0.65
20 0.15
21 0.27
22 0.15
23 0.15
24 0.15
25 0.36
26 0.36
27 0.5
3 -0.57
4 0.03
5 -0.99
6 -0.18
7 0.18
9 0.33

>  <PUBCHEM_EFFECTIVE_ROTOR_COUNT>
3

>  <PUBCHEM_PHARMACOPHORE_FEATURES>
10
1 1 hydrophobe
1 2 acceptor
1 3 acceptor
1 4 cation
1 4 donor
1 5 cation
1 5 donor
3 2 3 15 anion
5 4 6 8 10 11 rings
6 8 10 12 13 14 16 rings

>  <PUBCHEM_HEAVY_ATOM_COUNT>
16

>  <PUBCHEM_ATOM_DEF_STEREO_COUNT>
1

>  <PUBCHEM_ATOM_UDEF_STEREO_COUNT>
0

>  <PUBCHEM_BOND_DEF_STEREO_COUNT>
0

>  <PUBCHEM_BOND_UDEF_STEREO_COUNT>
0

>  <PUBCHEM_ISOTOPIC_ATOM_COUNT>
0

>  <PUBCHEM_COMPONENT_COUNT>
1

>  <PUBCHEM_CACTVS_TAUTO_COUNT>
1

>  <PUBCHEM_CONFORMER_ID>
009667E400000001

>  <PUBCHEM_MMFF94_ENERGY>
21.0466

>  <PUBCHEM_FEATURE_SELFOVERLAP>
50.894

>  <PUBCHEM_SHAPE_FINGERPRINT>
11640471 11 17897169241491425364
13380535 76 18410294670965602035
13583140 156 17168139023441679835
14252887 29 11458712659804682608
15775835 57 18333737935238967004
16945 1 18336826377533705283
17134986 127 18410578378913635645
18186145 218 18272381874989339273
20645476 183 18408879646661047803
21524375 3 18335704922923093907
22094290 62 18335420158096341074
231179 274 17968936384086486621
23175994 123 15647323110040252050
23402539 116 18059846273071424276
23419403 2 16323922076747560138
23557571 272 17488738011970372966
23559900 14 17988922289224085616
2748010 2 17262138733348140635
3060560 45 18339925896348549358
474 4 18261115136595359761
4990 188 16845568691446478597
537710 114 18271523105353703161
58051976 378 18270678667485791717
7364860 26 18127413345488937191
7832392 63 18336824281853110036
9981440 41 17542499887858668280

>  <PUBCHEM_SHAPE_MULTIPOLES>
313.51
6.75
2.25
0.97
3
0.6
-0.15
-3.7
-0.12
-0.27
-0.29
-0.29
-0.18
-0.56

>  <PUBCHEM_SHAPE_SELFOVERLAP>
660.574

>  <PUBCHEM_SHAPE_VOLUME>
181.4

>  <PUBCHEM_COORDINATE_TYPE>
2
5
10

$$$$
9856996
 OpenBabel12092211553D

 27 28  0  0  1  0  0  0  0  0999 V2000
   -4.8081    1.4276   -0.1446 Br  0  0  0  0  0  0  0  0  0  0  0  0
    4.2065   -1.9065   -1.1169 O   0  0  0  0  0  0  0  0  0  0  0  0
    2.4756   -1.0582   -2.3107 O   0  0  0  0  0  0  0  0  0  0  0  0
   -0.9988   -2.3341   -0.5475 N   0  0  0  0  0  0  0  0  0  0  0  0
    2.3346    1.0692   -0.5900 N   0  0  0  0  0  0  0  0  0  0  0  0
    0.6524   -1.1965    0.4046 C   0  0  0  0  0  0  0  0  0  0  0  0
    1.9803   -0.8386    0.9432 C   0  0  0  0  0  0  0  0  0  0  0  0
   -0.5080   -0.3730    0.3963 C   0  0  0  0  0  0  0  0  0  0  0  0
    2.9257   -0.1720   -0.0830 C   0  0  1  0  0  0  0  0  0  0  0  0
   -1.5295   -1.1104   -0.2063 C   0  0  0  0  0  0  0  0  0  0  0  0
    0.3192   -2.3955   -0.1824 C   0  0  0  0  0  0  0  0  0  0  0  0
   -0.7883    0.9330    0.8448 C   0  0  0  0  0  0  0  0  0  0  0  0
   -2.8223   -0.6050   -0.3834 C   0  0  0  0  0  0  0  0  0  0  0  0
   -2.0769    1.4517    0.6742 C   0  0  0  0  0  0  0  0  0  0  0  0
    3.1454   -1.0745   -1.2856 C   0  0  0  0  0  0  0  0  0  0  0  0
   -3.0769    0.6928    0.0693 C   0  0  0  0  0  0  0  0  0  0  0  0
    2.4622   -1.7450    1.3352 H   0  0  0  0  0  0  0  0  0  0  0  0
    1.8503   -0.1745    1.8091 H   0  0  0  0  0  0  0  0  0  0  0  0
    3.8949    0.0619    0.3727 H   0  0  0  0  0  0  0  0  0  0  0  0
    0.9002   -3.2868   -0.3743 H   0  0  0  0  0  0  0  0  0  0  0  0
   -1.5092   -3.0787   -1.0019 H   0  0  0  0  0  0  0  0  0  0  0  0
   -0.0242    1.5380    1.3240 H   0  0  0  0  0  0  0  0  0  0  0  0
   -3.5919   -1.2071   -0.8564 H   0  0  0  0  0  0  0  0  0  0  0  0
   -2.2819    2.4605    1.0255 H   0  0  0  0  0  0  0  0  0  0  0  0
    3.0027    1.5419   -1.1980 H   0  0  0  0  0  0  0  0  0  0  0  0
    2.1600    1.7050    0.1874 H   0  0  0  0  0  0  0  0  0  0  0  0
    4.3477   -2.4816   -1.8989 H   0  0  0  0  0  0  0  0  0  0  0  0
  1 16  1  0  0  0  0
  2 15  1  0  0  0  0
  2 27  1  0  0  0  0
  3 15  2  0  0  0  0
  4 10  1  0  0  0  0
  4 11  1  0  0  0  0
  4 21  1  0  0  0  0
  5  9  1  0  0  0  0
  5 25  1  0  0  0  0
  5 26  1  0  0  0  0
  6  7  1  0  0  0  0
  6  8  1  0  0  0  0
  6 11  2  0  0  0  0
  7  9  1  0  0  0  0
  7 17  1  0  0  0  0
  7 18  1  0  0  0  0
  8 10  2  0  0  0  0
  8 12  1  0  0  0  0
  9 15  1  0  0  0  0
  9 19  1  1  0  0  0
 10 13  1  0  0  0  0
 11 20  1  0  0  0  0
 12 14  2  0  0  0  0
 12 22  1  0  0  0  0
 13 16  2  0  0  0  0
 13 23  1  0  0  0  0
 14 16  1  0  0  0  0
 14 24  1  0  0  0  0
M  END
>  <PUBCHEM_COMPOUND_CID>
9856996

>  <PUBCHEM_CONFORMER_RMSD>
0.6

>  <PUBCHEM_CONFORMER_DIVERSEORDER>
1
17
15
19
6
11
14
16
5
9
12
13
18
7
3
2
4
8
10

>  <PUBCHEM_MMFF94_PARTIAL_CHARGES>
23
1 -0.11
10 -0.15
11 -0.3
12 -0.15
13 -0.15
14 -0.15
15 0.66
16 0.11
2 -0.65
20 0.15
21 0.27
22 0.15
23 0.15
24 0.15
25 0.36
26 0.36
27 0.5
3 -0.57
4 0.03
5 -0.99
6 -0.18
7 0.18
9 0.33

>  <PUBCHEM_EFFECTIVE_ROTOR_COUNT>
3

>  <PUBCHEM_PHARMACOPHORE_FEATURES>
10
1 1 hydrophobe
1 2 acceptor
1 3 acceptor
1 4 cation
1 4 donor
1 5 cation
1 5 donor
3 2 3 15 anion
5 4 6 8 10 11 rings
6 8 10 12 13 14 16 rings

>  <PUBCHEM_HEAVY_ATOM_COUNT>
16

>  <PUBCHEM_ATOM_DEF_STEREO_COUNT>
1

>  <PUBCHEM_ATOM_UDEF_STEREO_COUNT>
0

>  <PUBCHEM_BOND_DEF_STEREO_COUNT>
0

>  <PUBCHEM_BOND_UDEF_STEREO_COUNT>
0

>  <PUBCHEM_ISOTOPIC_ATOM_COUNT>
0

>  <PUBCHEM_COMPONENT_COUNT>
1

>  <PUBCHEM_CACTVS_TAUTO_COUNT>
1

>  <PUBCHEM_CONFORMER_ID>
009667E400000001

>  <PUBCHEM_MMFF94_ENERGY>
21.0466

>  <PUBCHEM_FEATURE_SELFOVERLAP>
50.894

>  <PUBCHEM_SHAPE_FINGERPRINT>
11640471 11 17897169241491425364
13380535 76 18410294670965602035
13583140 156 17168139023441679835
14252887 29 11458712659804682608
15775835 57 18333737935238967004
16945 1 18336826377533705283
17134986 127 18410578378913635645
18186145 218 18272381874989339273
20645476 183 18408879646661047803
21524375 3 18335704922923093907
22094290 62 18335420158096341074
231179 274 17968936384086486621
23175994 123 15647323110040252050
23402539 116 18059846273071424276
23419403 2 16323922076747560138
23557571 272 17488738011970372966
23559900 14 17988922289224085616
2748010 2 17262138733348140635
3060560 45 18339925896348549358
474 4 18261115136595359761
4990 188 16845568691446478597
537710 114 18271523105353703161
58051976 378 18270678667485791717
7364860 26 18127413345488937191
7832392 63 18336824281853110036
9981440 41 17542499887858668280

>  <PUBCHEM_SHAPE_MULTIPOLES>
313.51
6.75
2.25
0.97
3
0.6
-0.15
-3.7
-0.12
-0.27
-0.29
-0.29
-0.18
-0.56

>  <PUBCHEM_SHAPE_SELFOVERLAP>
660.574

>  <PUBCHEM_SHAPE_VOLUME>
181.4

>  <PUBCHEM_COORDINATE_TYPE>
2
5
10

$$$$
9856996
 OpenBabel12092211553D

 27 28  0  0  1  0  0  0  0  0999 V2000
   -4.8081    1.4276   -0.1446 Br  0  0  0  0  0  0  0  0  0  0  0  0
    1.5489    0.3414   -1.4284 O   0  0  0  0  0  0  0  0  0  0  0  0
    3.7464    0.6847   -1.8686 O   0  0  0  0  0  0  0  0  0  0  0  0
   -0.9988   -2.3341   -0.5475 N   0  0  0  0  0  0  0  0  0  0  0  0
    4.3950   -0.5064    0.5253 N   0  0  0  0  0  0  0  0  0  0  0  0
    0.6524   -1.1965    0.4046 C   0  0  0  0  0  0  0  0  0  0  0  0
    1.9803   -0.8386    0.9432 C   0  0  0  0  0  0  0  0  0  0  0  0
   -0.5080   -0.3730    0.3963 C   0  0  0  0  0  0  0  0  0  0  0  0
    3.1217   -0.8743   -0.0994 C   0  0  1  0  0  0  0  0  0  0  0  0
   -1.5295   -1.1104   -0.2063 C   0  0  0  0  0  0  0  0  0  0  0  0
    0.3192   -2.3955   -0.1824 C   0  0  0  0  0  0  0  0  0  0  0  0
   -0.7883    0.9330    0.8448 C   0  0  0  0  0  0  0  0  0  0  0  0
   -2.8223   -0.6050   -0.3834 C   0  0  0  0  0  0  0  0  0  0  0  0
   -2.0769    1.4517    0.6742 C   0  0  0  0  0  0  0  0  0  0  0  0
    2.8738    0.1314   -1.2112 C   0  0  0  0  0  0  0  0  0  0  0  0
   -3.0769    0.6928    0.0693 C   0  0  0  0  0  0  0  0  0  0  0  0
    2.2279   -1.5236    1.7659 H   0  0  0  0  0  0  0  0  0  0  0  0
    1.9272    0.1611    1.3964 H   0  0  0  0  0  0  0  0  0  0  0  0
    3.2216   -1.8751   -0.5357 H   0  0  0  0  0  0  0  0  0  0  0  0
    0.9002   -3.2868   -0.3743 H   0  0  0  0  0  0  0  0  0  0  0  0
   -1.5092   -3.0787   -1.0019 H   0  0  0  0  0  0  0  0  0  0  0  0
   -0.0242    1.5380    1.3240 H   0  0  0  0  0  0  0  0  0  0  0  0
   -3.5919   -1.2071   -0.8564 H   0  0  0  0  0  0  0  0  0  0  0  0
   -2.2819    2.4605    1.0255 H   0  0  0  0  0  0  0  0  0  0  0  0
    5.1510   -0.6174   -0.1497 H   0  0  0  0  0  0  0  0  0  0  0  0
    4.5989   -1.1519    1.2875 H   0  0  0  0  0  0  0  0  0  0  0  0
    1.3950    0.9861   -2.1516 H   0  0  0  0  0  0  0  0  0  0  0  0
  1 16  1  0  0  0  0
  2 15  1  0  0  0  0
  2 27  1  0  0  0  0
  3 15  2  0  0  0  0
  4 10  1  0  0  0  0
  4 11  1  0  0  0  0
  4 21  1  0  0  0  0
  5  9  1  0  0  0  0
  5 25  1  0  0  0  0
  5 26  1  0  0  0  0
  6  7  1  0  0  0  0
  6  8  1  0  0  0  0
  6 11  2  0  0  0  0
  7  9  1  0  0  0  0
  7 17  1  0  0  0  0
  7 18  1  0  0  0  0
  8 10  2  0  0  0  0
  8 12  1  0  0  0  0
  9 15  1  0  0  0  0
  9 19  1  6  0  0  0
 10 13  1  0  0  0  0
 11 20  1  0  0  0  0
 12 14  2  0  0  0  0
 12 22  1  0  0  0  0
 13 16  2  0  0  0  0
 13 23  1  0  0  0  0
 14 16  1  0  0  0  0
 14 24  1  0  0  0  0
M  END
>  <PUBCHEM_COMPOUND_CID>
9856996

>  <PUBCHEM_CONFORMER_RMSD>
0.6

>  <PUBCHEM_CONFORMER_DIVERSEORDER>
1
17
15
19
6
11
14
16
5
9
12
13
18
7
3
2
4
8
10

>  <PUBCHEM_MMFF94_PARTIAL_CHARGES>
23
1 -0.11
10 -0.15
11 -0.3
12 -0.15
13 -0.15
14 -0.15
15 0.66
16 0.11
2 -0.65
20 0.15
21 0.27
22 0.15
23 0.15
24 0.15
25 0.36
26 0.36
27 0.5
3 -0.57
4 0.03
5 -0.99
6 -0.18
7 0.18
9 0.33

>  <PUBCHEM_EFFECTIVE_ROTOR_COUNT>
3

>  <PUBCHEM_PHARMACOPHORE_FEATURES>
10
1 1 hydrophobe
1 2 acceptor
1 3 acceptor
1 4 cation
1 4 donor
1 5 cation
1 5 donor
3 2 3 15 anion
5 4 6 8 10 11 rings
6 8 10 12 13 14 16 rings

>  <PUBCHEM_HEAVY_ATOM_COUNT>
16

>  <PUBCHEM_ATOM_DEF_STEREO_COUNT>
1

>  <PUBCHEM_ATOM_UDEF_STEREO_COUNT>
0

>  <PUBCHEM_BOND_DEF_STEREO_COUNT>
0

>  <PUBCHEM_BOND_UDEF_STEREO_COUNT>
0

>  <PUBCHEM_ISOTOPIC_ATOM_COUNT>
0

>  <PUBCHEM_COMPONENT_COUNT>
1

>  <PUBCHEM_CACTVS_TAUTO_COUNT>
1

>  <PUBCHEM_CONFORMER_ID>
009667E400000001

>  <PUBCHEM_MMFF94_ENERGY>
21.0466

>  <PUBCHEM_FEATURE_SELFOVERLAP>
50.894

>  <PUBCHEM_SHAPE_FINGERPRINT>
11640471 11 17897169241491425364
13380535 76 18410294670965602035
13583140 156 17168139023441679835
14252887 29 11458712659804682608
15775835 57 18333737935238967004
16945 1 18336826377533705283
17134986 127 18410578378913635645
18186145 218 18272381874989339273
20645476 183 18408879646661047803
21524375 3 18335704922923093907
22094290 62 18335420158096341074
231179 274 17968936384086486621
23175994 123 15647323110040252050
23402539 116 18059846273071424276
23419403 2 16323922076747560138
23557571 272 17488738011970372966
23559900 14 17988922289224085616
2748010 2 17262138733348140635
3060560 45 18339925896348549358
474 4 18261115136595359761
4990 188 16845568691446478597
537710 114 18271523105353703161
58051976 378 18270678667485791717
7364860 26 18127413345488937191
7832392 63 18336824281853110036
9981440 41 17542499887858668280

>  <PUBCHEM_SHAPE_MULTIPOLES>
313.51
6.75
2.25
0.97
3
0.6
-0.15
-3.7
-0.12
-0.27
-0.29
-0.29
-0.18
-0.56

>  <PUBCHEM_SHAPE_SELFOVERLAP>
660.574

>  <PUBCHEM_SHAPE_VOLUME>
181.4

>  <PUBCHEM_COORDINATE_TYPE>
2
5
10

$$$$
9856996
 OpenBabel12092211553D

 27 28  0  0  1  0  0  0  0  0999 V2000
   -4.8081    1.4276   -0.1446 Br  0  0  0  0  0  0  0  0  0  0  0  0
    0.8563   -3.1808    2.2762 O   0  0  0  0  0  0  0  0  0  0  0  0
    2.9427   -3.4052    3.1347 O   0  0  0  0  0  0  0  0  0  0  0  0
   -0.9988   -2.3341   -0.5475 N   0  0  0  0  0  0  0  0  0  0  0  0
    3.5219   -0.8052    2.8767 N   0  0  0  0  0  0  0  0  0  0  0  0
    0.6524   -1.1965    0.4046 C   0  0  0  0  0  0  0  0  0  0  0  0
    1.9803   -0.8386    0.9432 C   0  0  0  0  0  0  0  0  0  0  0  0
   -0.5080   -0.3730    0.3963 C   0  0  0  0  0  0  0  0  0  0  0  0
    2.1808   -1.1963    2.4342 C   0  0  1  0  0  0  0  0  0  0  0  0
   -1.5295   -1.1104   -0.2063 C   0  0  0  0  0  0  0  0  0  0  0  0
    0.3192   -2.3955   -0.1824 C   0  0  0  0  0  0  0  0  0  0  0  0
   -0.7883    0.9330    0.8448 C   0  0  0  0  0  0  0  0  0  0  0  0
   -2.8223   -0.6050   -0.3834 C   0  0  0  0  0  0  0  0  0  0  0  0
   -2.0769    1.4517    0.6742 C   0  0  0  0  0  0  0  0  0  0  0  0
    2.0683   -2.6957    2.6531 C   0  0  0  0  0  0  0  0  0  0  0  0
   -3.0769    0.6928    0.0693 C   0  0  0  0  0  0  0  0  0  0  0  0
    2.1396    0.2406    0.8113 H   0  0  0  0  0  0  0  0  0  0  0  0
    2.7572   -1.3283    0.3397 H   0  0  0  0  0  0  0  0  0  0  0  0
    1.4417   -0.6849    3.0618 H   0  0  0  0  0  0  0  0  0  0  0  0
    0.9002   -3.2868   -0.3743 H   0  0  0  0  0  0  0  0  0  0  0  0
   -1.5092   -3.0787   -1.0019 H   0  0  0  0  0  0  0  0  0  0  0  0
   -0.0242    1.5380    1.3240 H   0  0  0  0  0  0  0  0  0  0  0  0
   -3.5919   -1.2071   -0.8564 H   0  0  0  0  0  0  0  0  0  0  0  0
   -2.2819    2.4605    1.0255 H   0  0  0  0  0  0  0  0  0  0  0  0
    3.6109   -0.9666    3.8794 H   0  0  0  0  0  0  0  0  0  0  0  0
    3.6466    0.1970    2.7389 H   0  0  0  0  0  0  0  0  0  0  0  0
    0.7870   -4.1478    2.4262 H   0  0  0  0  0  0  0  0  0  0  0  0
  1 16  1  0  0  0  0
  2 15  1  0  0  0  0
  2 27  1  0  0  0  0
  3 15  2  0  0  0  0
  4 10  1  0  0  0  0
  4 11  1  0  0  0  0
  4 21  1  0  0  0  0
  5  9  1  0  0  0  0
  5 25  1  0  0  0  0
  5 26  1  0  0  0  0
  6  7  1  0  0  0  0
  6  8  1  0  0  0  0
  6 11  2  0  0  0  0
  7  9  1  0  0  0  0
  7 17  1  0  0  0  0
  7 18  1  0  0  0  0
  8 10  2  0  0  0  0
  8 12  1  0  0  0  0
  9 15  1  0  0  0  0
  9 19  1  1  0  0  0
 10 13  1  0  0  0  0
 11 20  1  0  0  0  0
 12 14  2  0  0  0  0
 12 22  1  0  0  0  0
 13 16  2  0  0  0  0
 13 23  1  0  0  0  0
 14 16  1  0  0  0  0
 14 24  1  0  0  0  0
M  END
>  <PUBCHEM_COMPOUND_CID>
9856996

>  <PUBCHEM_CONFORMER_RMSD>
0.6

>  <PUBCHEM_CONFORMER_DIVERSEORDER>
1
17
15
19
6
11
14
16
5
9
12
13
18
7
3
2
4
8
10

>  <PUBCHEM_MMFF94_PARTIAL_CHARGES>
23
1 -0.11
10 -0.15
11 -0.3
12 -0.15
13 -0.15
14 -0.15
15 0.66
16 0.11
2 -0.65
20 0.15
21 0.27
22 0.15
23 0.15
24 0.15
25 0.36
26 0.36
27 0.5
3 -0.57
4 0.03
5 -0.99
6 -0.18
7 0.18
9 0.33

>  <PUBCHEM_EFFECTIVE_ROTOR_COUNT>
3

>  <PUBCHEM_PHARMACOPHORE_FEATURES>
10
1 1 hydrophobe
1 2 acceptor
1 3 acceptor
1 4 cation
1 4 donor
1 5 cation
1 5 donor
3 2 3 15 anion
5 4 6 8 10 11 rings
6 8 10 12 13 14 16 rings

>  <PUBCHEM_HEAVY_ATOM_COUNT>
16

>  <PUBCHEM_ATOM_DEF_STEREO_COUNT>
1

>  <PUBCHEM_ATOM_UDEF_STEREO_COUNT>
0

>  <PUBCHEM_BOND_DEF_STEREO_COUNT>
0

>  <PUBCHEM_BOND_UDEF_STEREO_COUNT>
0

>  <PUBCHEM_ISOTOPIC_ATOM_COUNT>
0

>  <PUBCHEM_COMPONENT_COUNT>
1

>  <PUBCHEM_CACTVS_TAUTO_COUNT>
1

>  <PUBCHEM_CONFORMER_ID>
009667E400000001

>  <PUBCHEM_MMFF94_ENERGY>
21.0466

>  <PUBCHEM_FEATURE_SELFOVERLAP>
50.894

>  <PUBCHEM_SHAPE_FINGERPRINT>
11640471 11 17897169241491425364
13380535 76 18410294670965602035
13583140 156 17168139023441679835
14252887 29 11458712659804682608
15775835 57 18333737935238967004
16945 1 18336826377533705283
17134986 127 18410578378913635645
18186145 218 18272381874989339273
20645476 183 18408879646661047803
21524375 3 18335704922923093907
22094290 62 18335420158096341074
231179 274 17968936384086486621
23175994 123 15647323110040252050
23402539 116 18059846273071424276
23419403 2 16323922076747560138
23557571 272 17488738011970372966
23559900 14 17988922289224085616
2748010 2 17262138733348140635
3060560 45 18339925896348549358
474 4 18261115136595359761
4990 188 16845568691446478597
537710 114 18271523105353703161
58051976 378 18270678667485791717
7364860 26 18127413345488937191
7832392 63 18336824281853110036
9981440 41 17542499887858668280

>  <PUBCHEM_SHAPE_MULTIPOLES>
313.51
6.75
2.25
0.97
3
0.6
-0.15
-3.7
-0.12
-0.27
-0.29
-0.29
-0.18
-0.56

>  <PUBCHEM_SHAPE_SELFOVERLAP>
660.574

>  <PUBCHEM_SHAPE_VOLUME>
181.4

>  <PUBCHEM_COORDINATE_TYPE>
2
5
10

$$$$
9856996
 OpenBabel12092211553D

 27 28  0  0  1  0  0  0  0  0999 V2000
   -4.8081    1.4276   -0.1446 Br  0  0  0  0  0  0  0  0  0  0  0  0
    1.9107   -2.5676    4.2593 O   0  0  0  0  0  0  0  0  0  0  0  0
    0.4369   -1.1548    3.2731 O   0  0  0  0  0  0  0  0  0  0  0  0
   -0.9988   -2.3341   -0.5475 N   0  0  0  0  0  0  0  0  0  0  0  0
    2.5791   -3.1444    1.6072 N   0  0  0  0  0  0  0  0  0  0  0  0
    0.6524   -1.1965    0.4046 C   0  0  0  0  0  0  0  0  0  0  0  0
    1.9803   -0.8386    0.9432 C   0  0  0  0  0  0  0  0  0  0  0  0
   -0.5080   -0.3730    0.3963 C   0  0  0  0  0  0  0  0  0  0  0  0
    2.4766   -1.7614    2.0804 C   0  0  1  0  0  0  0  0  0  0  0  0
   -1.5295   -1.1104   -0.2063 C   0  0  0  0  0  0  0  0  0  0  0  0
    0.3192   -2.3955   -0.1824 C   0  0  0  0  0  0  0  0  0  0  0  0
   -0.7883    0.9330    0.8448 C   0  0  0  0  0  0  0  0  0  0  0  0
   -2.8223   -0.6050   -0.3834 C   0  0  0  0  0  0  0  0  0  0  0  0
   -2.0769    1.4517    0.6742 C   0  0  0  0  0  0  0  0  0  0  0  0
    1.4963   -1.7684    3.2414 C   0  0  0  0  0  0  0  0  0  0  0  0
   -3.0769    0.6928    0.0693 C   0  0  0  0  0  0  0  0  0  0  0  0
    1.9484    0.1959    1.3122 H   0  0  0  0  0  0  0  0  0  0  0  0
    2.7127   -0.8381    0.1239 H   0  0  0  0  0  0  0  0  0  0  0  0
    3.4604   -1.4411    2.4427 H   0  0  0  0  0  0  0  0  0  0  0  0
    0.9002   -3.2868   -0.3743 H   0  0  0  0  0  0  0  0  0  0  0  0
   -1.5092   -3.0787   -1.0019 H   0  0  0  0  0  0  0  0  0  0  0  0
   -0.0242    1.5380    1.3240 H   0  0  0  0  0  0  0  0  0  0  0  0
   -3.5919   -1.2071   -0.8564 H   0  0  0  0  0  0  0  0  0  0  0  0
   -2.2819    2.4605    1.0255 H   0  0  0  0  0  0  0  0  0  0  0  0
    2.9882   -3.7257    2.3380 H   0  0  0  0  0  0  0  0  0  0  0  0
    3.2227   -3.1869    0.8179 H   0  0  0  0  0  0  0  0  0  0  0  0
    1.2708   -2.5736    5.0028 H   0  0  0  0  0  0  0  0  0  0  0  0
  1 16  1  0  0  0  0
  2 15  1  0  0  0  0
  2 27  1  0  0  0  0
  3 15  2  0  0  0  0
  4 10  1  0  0  0  0
  4 11  1  0  0  0  0
  4 21  1  0  0  0  0
  5  9  1  0  0  0  0
  5 25  1  0  0  0  0
  5 26  1  0  0  0  0
  6  7  1  0  0  0  0
  6  8  1  0  0  0  0
  6 11  2  0  0  0  0
  7  9  1  0  0  0  0
  7 17  1  0  0  0  0
  7 18  1  0  0  0  0
  8 10  2  0  0  0  0
  8 12  1  0  0  0  0
  9 15  1  0  0  0  0
  9 19  1  1  0  0  0
 10 13  1  0  0  0  0
 11 20  1  0  0  0  0
 12 14  2  0  0  0  0
 12 22  1  0  0  0  0
 13 16  2  0  0  0  0
 13 23  1  0  0  0  0
 14 16  1  0  0  0  0
 14 24  1  0  0  0  0
M  END
>  <PUBCHEM_COMPOUND_CID>
9856996

>  <PUBCHEM_CONFORMER_RMSD>
0.6

>  <PUBCHEM_CONFORMER_DIVERSEORDER>
1
17
15
19
6
11
14
16
5
9
12
13
18
7
3
2
4
8
10

>  <PUBCHEM_MMFF94_PARTIAL_CHARGES>
23
1 -0.11
10 -0.15
11 -0.3
12 -0.15
13 -0.15
14 -0.15
15 0.66
16 0.11
2 -0.65
20 0.15
21 0.27
22 0.15
23 0.15
24 0.15
25 0.36
26 0.36
27 0.5
3 -0.57
4 0.03
5 -0.99
6 -0.18
7 0.18
9 0.33

>  <PUBCHEM_EFFECTIVE_ROTOR_COUNT>
3

>  <PUBCHEM_PHARMACOPHORE_FEATURES>
10
1 1 hydrophobe
1 2 acceptor
1 3 acceptor
1 4 cation
1 4 donor
1 5 cation
1 5 donor
3 2 3 15 anion
5 4 6 8 10 11 rings
6 8 10 12 13 14 16 rings

>  <PUBCHEM_HEAVY_ATOM_COUNT>
16

>  <PUBCHEM_ATOM_DEF_STEREO_COUNT>
1

>  <PUBCHEM_ATOM_UDEF_STEREO_COUNT>
0

>  <PUBCHEM_BOND_DEF_STEREO_COUNT>
0

>  <PUBCHEM_BOND_UDEF_STEREO_COUNT>
0

>  <PUBCHEM_ISOTOPIC_ATOM_COUNT>
0

>  <PUBCHEM_COMPONENT_COUNT>
1

>  <PUBCHEM_CACTVS_TAUTO_COUNT>
1

>  <PUBCHEM_CONFORMER_ID>
009667E400000001

>  <PUBCHEM_MMFF94_ENERGY>
21.0466

>  <PUBCHEM_FEATURE_SELFOVERLAP>
50.894

>  <PUBCHEM_SHAPE_FINGERPRINT>
11640471 11 17897169241491425364
13380535 76 18410294670965602035
13583140 156 17168139023441679835
14252887 29 11458712659804682608
15775835 57 18333737935238967004
16945 1 18336826377533705283
17134986 127 18410578378913635645
18186145 218 18272381874989339273
20645476 183 18408879646661047803
21524375 3 18335704922923093907
22094290 62 18335420158096341074
231179 274 17968936384086486621
23175994 123 15647323110040252050
23402539 116 18059846273071424276
23419403 2 16323922076747560138
23557571 272 17488738011970372966
23559900 14 17988922289224085616
2748010 2 17262138733348140635
3060560 45 18339925896348549358
474 4 18261115136595359761
4990 188 16845568691446478597
537710 114 18271523105353703161
58051976 378 18270678667485791717
7364860 26 18127413345488937191
7832392 63 18336824281853110036
9981440 41 17542499887858668280

>  <PUBCHEM_SHAPE_MULTIPOLES>
313.51
6.75
2.25
0.97
3
0.6
-0.15
-3.7
-0.12
-0.27
-0.29
-0.29
-0.18
-0.56

>  <PUBCHEM_SHAPE_SELFOVERLAP>
660.574

>  <PUBCHEM_SHAPE_VOLUME>
181.4

>  <PUBCHEM_COORDINATE_TYPE>
2
5
10

$$$$
9856996
 OpenBabel12092211553D

 27 28  0  0  1  0  0  0  0  0999 V2000
   -4.8081    1.4276   -0.1446 Br  0  0  0  0  0  0  0  0  0  0  0  0
    1.4925   -3.9145    1.7439 O   0  0  0  0  0  0  0  0  0  0  0  0
    3.6617   -3.6704    1.1309 O   0  0  0  0  0  0  0  0  0  0  0  0
   -0.9988   -2.3341   -0.5475 N   0  0  0  0  0  0  0  0  0  0  0  0
    3.7963   -1.3297    2.5484 N   0  0  0  0  0  0  0  0  0  0  0  0
    0.6524   -1.1965    0.4046 C   0  0  0  0  0  0  0  0  0  0  0  0
    1.9803   -0.8386    0.9432 C   0  0  0  0  0  0  0  0  0  0  0  0
   -0.5080   -0.3730    0.3963 C   0  0  0  0  0  0  0  0  0  0  0  0
    2.4766   -1.7614    2.0804 C   0  0  1  0  0  0  0  0  0  0  0  0
   -1.5295   -1.1104   -0.2063 C   0  0  0  0  0  0  0  0  0  0  0  0
    0.3192   -2.3955   -0.1824 C   0  0  0  0  0  0  0  0  0  0  0  0
   -0.7883    0.9330    0.8448 C   0  0  0  0  0  0  0  0  0  0  0  0
   -2.8223   -0.6050   -0.3834 C   0  0  0  0  0  0  0  0  0  0  0  0
   -2.0769    1.4517    0.6742 C   0  0  0  0  0  0  0  0  0  0  0  0
    2.6328   -3.1913    1.5909 C   0  0  0  0  0  0  0  0  0  0  0  0
   -3.0769    0.6928    0.0693 C   0  0  0  0  0  0  0  0  0  0  0  0
    1.9484    0.1959    1.3122 H   0  0  0  0  0  0  0  0  0  0  0  0
    2.7127   -0.8381    0.1239 H   0  0  0  0  0  0  0  0  0  0  0  0
    1.7817   -1.7455    2.9282 H   0  0  0  0  0  0  0  0  0  0  0  0
    0.9002   -3.2868   -0.3743 H   0  0  0  0  0  0  0  0  0  0  0  0
   -1.5092   -3.0787   -1.0019 H   0  0  0  0  0  0  0  0  0  0  0  0
   -0.0242    1.5380    1.3240 H   0  0  0  0  0  0  0  0  0  0  0  0
   -3.5919   -1.2071   -0.8564 H   0  0  0  0  0  0  0  0  0  0  0  0
   -2.2819    2.4605    1.0255 H   0  0  0  0  0  0  0  0  0  0  0  0
    4.0733   -1.8907    3.3534 H   0  0  0  0  0  0  0  0  0  0  0  0
    3.7417   -0.3671    2.8794 H   0  0  0  0  0  0  0  0  0  0  0  0
    1.6014   -4.8384    1.4327 H   0  0  0  0  0  0  0  0  0  0  0  0
  1 16  1  0  0  0  0
  2 15  1  0  0  0  0
  2 27  1  0  0  0  0
  3 15  2  0  0  0  0
  4 10  1  0  0  0  0
  4 11  1  0  0  0  0
  4 21  1  0  0  0  0
  5  9  1  0  0  0  0
  5 25  1  0  0  0  0
  5 26  1  0  0  0  0
  6  7  1  0  0  0  0
  6  8  1  0  0  0  0
  6 11  2  0  0  0  0
  7  9  1  0  0  0  0
  7 17  1  0  0  0  0
  7 18  1  0  0  0  0
  8 10  2  0  0  0  0
  8 12  1  0  0  0  0
  9 15  1  0  0  0  0
  9 19  1  1  0  0  0
 10 13  1  0  0  0  0
 11 20  1  0  0  0  0
 12 14  2  0  0  0  0
 12 22  1  0  0  0  0
 13 16  2  0  0  0  0
 13 23  1  0  0  0  0
 14 16  1  0  0  0  0
 14 24  1  0  0  0  0
M  END
>  <PUBCHEM_COMPOUND_CID>
9856996

>  <PUBCHEM_CONFORMER_RMSD>
0.6

>  <PUBCHEM_CONFORMER_DIVERSEORDER>
1
17
15
19
6
11
14
16
5
9
12
13
18
7
3
2
4
8
10

>  <PUBCHEM_MMFF94_PARTIAL_CHARGES>
23
1 -0.11
10 -0.15
11 -0.3
12 -0.15
13 -0.15
14 -0.15
15 0.66
16 0.11
2 -0.65
20 0.15
21 0.27
22 0.15
23 0.15
24 0.15
25 0.36
26 0.36
27 0.5
3 -0.57
4 0.03
5 -0.99
6 -0.18
7 0.18
9 0.33

>  <PUBCHEM_EFFECTIVE_ROTOR_COUNT>
3

>  <PUBCHEM_PHARMACOPHORE_FEATURES>
10
1 1 hydrophobe
1 2 acceptor
1 3 acceptor
1 4 cation
1 4 donor
1 5 cation
1 5 donor
3 2 3 15 anion
5 4 6 8 10 11 rings
6 8 10 12 13 14 16 rings

>  <PUBCHEM_HEAVY_ATOM_COUNT>
16

>  <PUBCHEM_ATOM_DEF_STEREO_COUNT>
1

>  <PUBCHEM_ATOM_UDEF_STEREO_COUNT>
0

>  <PUBCHEM_BOND_DEF_STEREO_COUNT>
0

>  <PUBCHEM_BOND_UDEF_STEREO_COUNT>
0

>  <PUBCHEM_ISOTOPIC_ATOM_COUNT>
0

>  <PUBCHEM_COMPONENT_COUNT>
1

>  <PUBCHEM_CACTVS_TAUTO_COUNT>
1

>  <PUBCHEM_CONFORMER_ID>
009667E400000001

>  <PUBCHEM_MMFF94_ENERGY>
21.0466

>  <PUBCHEM_FEATURE_SELFOVERLAP>
50.894

>  <PUBCHEM_SHAPE_FINGERPRINT>
11640471 11 17897169241491425364
13380535 76 18410294670965602035
13583140 156 17168139023441679835
14252887 29 11458712659804682608
15775835 57 18333737935238967004
16945 1 18336826377533705283
17134986 127 18410578378913635645
18186145 218 18272381874989339273
20645476 183 18408879646661047803
21524375 3 18335704922923093907
22094290 62 18335420158096341074
231179 274 17968936384086486621
23175994 123 15647323110040252050
23402539 116 18059846273071424276
23419403 2 16323922076747560138
23557571 272 17488738011970372966
23559900 14 17988922289224085616
2748010 2 17262138733348140635
3060560 45 18339925896348549358
474 4 18261115136595359761
4990 188 16845568691446478597
537710 114 18271523105353703161
58051976 378 18270678667485791717
7364860 26 18127413345488937191
7832392 63 18336824281853110036
9981440 41 17542499887858668280

>  <PUBCHEM_SHAPE_MULTIPOLES>
313.51
6.75
2.25
0.97
3
0.6
-0.15
-3.7
-0.12
-0.27
-0.29
-0.29
-0.18
-0.56

>  <PUBCHEM_SHAPE_SELFOVERLAP>
660.574

>  <PUBCHEM_SHAPE_VOLUME>
181.4

>  <PUBCHEM_COORDINATE_TYPE>
2
5
10

$$$$
9856996
 OpenBabel12092211553D

 27 28  0  0  1  0  0  0  0  0999 V2000
   -4.8081    1.4276   -0.1446 Br  0  0  0  0  0  0  0  0  0  0  0  0
    1.7823   -2.9701    2.5620 O   0  0  0  0  0  0  0  0  0  0  0  0
    2.9278   -4.3586    1.1834 O   0  0  0  0  0  0  0  0  0  0  0  0
   -0.9988   -2.3341   -0.5475 N   0  0  0  0  0  0  0  0  0  0  0  0
    3.2469   -2.2925   -0.6053 N   0  0  0  0  0  0  0  0  0  0  0  0
    0.6524   -1.1965    0.4046 C   0  0  0  0  0  0  0  0  0  0  0  0
    1.9803   -0.8386    0.9432 C   0  0  0  0  0  0  0  0  0  0  0  0
   -0.5080   -0.3730    0.3963 C   0  0  0  0  0  0  0  0  0  0  0  0
    3.0450   -1.9515    0.8054 C   0  0  1  0  0  0  0  0  0  0  0  0
   -1.5295   -1.1104   -0.2063 C   0  0  0  0  0  0  0  0  0  0  0  0
    0.3192   -2.3955   -0.1824 C   0  0  0  0  0  0  0  0  0  0  0  0
   -0.7883    0.9330    0.8448 C   0  0  0  0  0  0  0  0  0  0  0  0
   -2.8223   -0.6050   -0.3834 C   0  0  0  0  0  0  0  0  0  0  0  0
   -2.0769    1.4517    0.6742 C   0  0  0  0  0  0  0  0  0  0  0  0
    2.5941   -3.2242    1.5024 C   0  0  0  0  0  0  0  0  0  0  0  0
   -3.0769    0.6928    0.0693 C   0  0  0  0  0  0  0  0  0  0  0  0
    1.8754   -0.5755    2.0049 H   0  0  0  0  0  0  0  0  0  0  0  0
    2.3361    0.0745    0.4459 H   0  0  0  0  0  0  0  0  0  0  0  0
    4.0037   -1.6301    1.2289 H   0  0  0  0  0  0  0  0  0  0  0  0
    0.9002   -3.2868   -0.3743 H   0  0  0  0  0  0  0  0  0  0  0  0
   -1.5092   -3.0787   -1.0019 H   0  0  0  0  0  0  0  0  0  0  0  0
   -0.0242    1.5380    1.3240 H   0  0  0  0  0  0  0  0  0  0  0  0
   -3.5919   -1.2071   -0.8564 H   0  0  0  0  0  0  0  0  0  0  0  0
   -2.2819    2.4605    1.0255 H   0  0  0  0  0  0  0  0  0  0  0  0
    4.0102   -2.9632   -0.6884 H   0  0  0  0  0  0  0  0  0  0  0  0
    3.5426   -1.4619   -1.1170 H   0  0  0  0  0  0  0  0  0  0  0  0
    1.5000   -3.7947    3.0121 H   0  0  0  0  0  0  0  0  0  0  0  0
  1 16  1  0  0  0  0
  2 15  1  0  0  0  0
  2 27  1  0  0  0  0
  3 15  2  0  0  0  0
  4 10  1  0  0  0  0
  4 11  1  0  0  0  0
  4 21  1  0  0  0  0
  5  9  1  0  0  0  0
  5 25  1  0  0  0  0
  5 26  1  0  0  0  0
  6  7  1  0  0  0  0
  6  8  1  0  0  0  0
  6 11  2  0  0  0  0
  7  9  1  0  0  0  0
  7 17  1  0  0  0  0
  7 18  1  0  0  0  0
  8 10  2  0  0  0  0
  8 12  1  0  0  0  0
  9 15  1  0  0  0  0
  9 19  1  1  0  0  0
 10 13  1  0  0  0  0
 11 20  1  0  0  0  0
 12 14  2  0  0  0  0
 12 22  1  0  0  0  0
 13 16  2  0  0  0  0
 13 23  1  0  0  0  0
 14 16  1  0  0  0  0
 14 24  1  0  0  0  0
M  END
>  <PUBCHEM_COMPOUND_CID>
9856996

>  <PUBCHEM_CONFORMER_RMSD>
0.6

>  <PUBCHEM_CONFORMER_DIVERSEORDER>
1
17
15
19
6
11
14
16
5
9
12
13
18
7
3
2
4
8
10

>  <PUBCHEM_MMFF94_PARTIAL_CHARGES>
23
1 -0.11
10 -0.15
11 -0.3
12 -0.15
13 -0.15
14 -0.15
15 0.66
16 0.11
2 -0.65
20 0.15
21 0.27
22 0.15
23 0.15
24 0.15
25 0.36
26 0.36
27 0.5
3 -0.57
4 0.03
5 -0.99
6 -0.18
7 0.18
9 0.33

>  <PUBCHEM_EFFECTIVE_ROTOR_COUNT>
3

>  <PUBCHEM_PHARMACOPHORE_FEATURES>
10
1 1 hydrophobe
1 2 acceptor
1 3 acceptor
1 4 cation
1 4 donor
1 5 cation
1 5 donor
3 2 3 15 anion
5 4 6 8 10 11 rings
6 8 10 12 13 14 16 rings

>  <PUBCHEM_HEAVY_ATOM_COUNT>
16

>  <PUBCHEM_ATOM_DEF_STEREO_COUNT>
1

>  <PUBCHEM_ATOM_UDEF_STEREO_COUNT>
0

>  <PUBCHEM_BOND_DEF_STEREO_COUNT>
0

>  <PUBCHEM_BOND_UDEF_STEREO_COUNT>
0

>  <PUBCHEM_ISOTOPIC_ATOM_COUNT>
0

>  <PUBCHEM_COMPONENT_COUNT>
1

>  <PUBCHEM_CACTVS_TAUTO_COUNT>
1

>  <PUBCHEM_CONFORMER_ID>
009667E400000001

>  <PUBCHEM_MMFF94_ENERGY>
21.0466

>  <PUBCHEM_FEATURE_SELFOVERLAP>
50.894

>  <PUBCHEM_SHAPE_FINGERPRINT>
11640471 11 17897169241491425364
13380535 76 18410294670965602035
13583140 156 17168139023441679835
14252887 29 11458712659804682608
15775835 57 18333737935238967004
16945 1 18336826377533705283
17134986 127 18410578378913635645
18186145 218 18272381874989339273
20645476 183 18408879646661047803
21524375 3 18335704922923093907
22094290 62 18335420158096341074
231179 274 17968936384086486621
23175994 123 15647323110040252050
23402539 116 18059846273071424276
23419403 2 16323922076747560138
23557571 272 17488738011970372966
23559900 14 17988922289224085616
2748010 2 17262138733348140635
3060560 45 18339925896348549358
474 4 18261115136595359761
4990 188 16845568691446478597
537710 114 18271523105353703161
58051976 378 18270678667485791717
7364860 26 18127413345488937191
7832392 63 18336824281853110036
9981440 41 17542499887858668280

>  <PUBCHEM_SHAPE_MULTIPOLES>
313.51
6.75
2.25
0.97
3
0.6
-0.15
-3.7
-0.12
-0.27
-0.29
-0.29
-0.18
-0.56

>  <PUBCHEM_SHAPE_SELFOVERLAP>
660.574

>  <PUBCHEM_SHAPE_VOLUME>
181.4

>  <PUBCHEM_COORDINATE_TYPE>
2
5
10

$$$$
9856996
 OpenBabel12092211553D

 27 28  0  0  1  0  0  0  0  0999 V2000
   -4.8081    1.4276   -0.1446 Br  0  0  0  0  0  0  0  0  0  0  0  0
    3.1008   -4.3395    0.9143 O   0  0  0  0  0  0  0  0  0  0  0  0
    1.8421   -3.2706    2.4679 O   0  0  0  0  0  0  0  0  0  0  0  0
   -0.9988   -2.3341   -0.5475 N   0  0  0  0  0  0  0  0  0  0  0  0
    3.2469   -2.2925   -0.6053 N   0  0  0  0  0  0  0  0  0  0  0  0
    0.6524   -1.1965    0.4046 C   0  0  0  0  0  0  0  0  0  0  0  0
    1.9803   -0.8386    0.9432 C   0  0  0  0  0  0  0  0  0  0  0  0
   -0.5080   -0.3730    0.3963 C   0  0  0  0  0  0  0  0  0  0  0  0
    3.0450   -1.9515    0.8054 C   0  0  1  0  0  0  0  0  0  0  0  0
   -1.5295   -1.1104   -0.2063 C   0  0  0  0  0  0  0  0  0  0  0  0
    0.3192   -2.3955   -0.1824 C   0  0  0  0  0  0  0  0  0  0  0  0
   -0.7883    0.9330    0.8448 C   0  0  0  0  0  0  0  0  0  0  0  0
   -2.8223   -0.6050   -0.3834 C   0  0  0  0  0  0  0  0  0  0  0  0
   -2.0769    1.4517    0.6742 C   0  0  0  0  0  0  0  0  0  0  0  0
    2.5941   -3.2242    1.5024 C   0  0  0  0  0  0  0  0  0  0  0  0
   -3.0769    0.6928    0.0693 C   0  0  0  0  0  0  0  0  0  0  0  0
    1.8754   -0.5755    2.0049 H   0  0  0  0  0  0  0  0  0  0  0  0
    2.3361    0.0745    0.4459 H   0  0  0  0  0  0  0  0  0  0  0  0
    4.0037   -1.6301    1.2289 H   0  0  0  0  0  0  0  0  0  0  0  0
    0.9002   -3.2868   -0.3743 H   0  0  0  0  0  0  0  0  0  0  0  0
   -1.5092   -3.0787   -1.0019 H   0  0  0  0  0  0  0  0  0  0  0  0
   -0.0242    1.5380    1.3240 H   0  0  0  0  0  0  0  0  0  0  0  0
   -3.5919   -1.2071   -0.8564 H   0  0  0  0  0  0  0  0  0  0  0  0
   -2.2819    2.4605    1.0255 H   0  0  0  0  0  0  0  0  0  0  0  0
    4.0102   -2.9632   -0.6884 H   0  0  0  0  0  0  0  0  0  0  0  0
    3.5426   -1.4619   -1.1170 H   0  0  0  0  0  0  0  0  0  0  0  0
    2.8009   -5.1581    1.3641 H   0  0  0  0  0  0  0  0  0  0  0  0
  1 16  1  0  0  0  0
  2 15  1  0  0  0  0
  2 27  1  0  0  0  0
  3 15  2  0  0  0  0
  4 10  1  0  0  0  0
  4 11  1  0  0  0  0
  4 21  1  0  0  0  0
  5  9  1  0  0  0  0
  5 25  1  0  0  0  0
  5 26  1  0  0  0  0
  6  7  1  0  0  0  0
  6  8  1  0  0  0  0
  6 11  2  0  0  0  0
  7  9  1  0  0  0  0
  7 17  1  0  0  0  0
  7 18  1  0  0  0  0
  8 10  2  0  0  0  0
  8 12  1  0  0  0  0
  9 15  1  0  0  0  0
  9 19  1  1  0  0  0
 10 13  1  0  0  0  0
 11 20  1  0  0  0  0
 12 14  2  0  0  0  0
 12 22  1  0  0  0  0
 13 16  2  0  0  0  0
 13 23  1  0  0  0  0
 14 16  1  0  0  0  0
 14 24  1  0  0  0  0
M  END
>  <PUBCHEM_COMPOUND_CID>
9856996

>  <PUBCHEM_CONFORMER_RMSD>
0.6

>  <PUBCHEM_CONFORMER_DIVERSEORDER>
1
17
15
19
6
11
14
16
5
9
12
13
18
7
3
2
4
8
10

>  <PUBCHEM_MMFF94_PARTIAL_CHARGES>
23
1 -0.11
10 -0.15
11 -0.3
12 -0.15
13 -0.15
14 -0.15
15 0.66
16 0.11
2 -0.65
20 0.15
21 0.27
22 0.15
23 0.15
24 0.15
25 0.36
26 0.36
27 0.5
3 -0.57
4 0.03
5 -0.99
6 -0.18
7 0.18
9 0.33

>  <PUBCHEM_EFFECTIVE_ROTOR_COUNT>
3

>  <PUBCHEM_PHARMACOPHORE_FEATURES>
10
1 1 hydrophobe
1 2 acceptor
1 3 acceptor
1 4 cation
1 4 donor
1 5 cation
1 5 donor
3 2 3 15 anion
5 4 6 8 10 11 rings
6 8 10 12 13 14 16 rings

>  <PUBCHEM_HEAVY_ATOM_COUNT>
16

>  <PUBCHEM_ATOM_DEF_STEREO_COUNT>
1

>  <PUBCHEM_ATOM_UDEF_STEREO_COUNT>
0

>  <PUBCHEM_BOND_DEF_STEREO_COUNT>
0

>  <PUBCHEM_BOND_UDEF_STEREO_COUNT>
0

>  <PUBCHEM_ISOTOPIC_ATOM_COUNT>
0

>  <PUBCHEM_COMPONENT_COUNT>
1

>  <PUBCHEM_CACTVS_TAUTO_COUNT>
1

>  <PUBCHEM_CONFORMER_ID>
009667E400000001

>  <PUBCHEM_MMFF94_ENERGY>
21.0466

>  <PUBCHEM_FEATURE_SELFOVERLAP>
50.894

>  <PUBCHEM_SHAPE_FINGERPRINT>
11640471 11 17897169241491425364
13380535 76 18410294670965602035
13583140 156 17168139023441679835
14252887 29 11458712659804682608
15775835 57 18333737935238967004
16945 1 18336826377533705283
17134986 127 18410578378913635645
18186145 218 18272381874989339273
20645476 183 18408879646661047803
21524375 3 18335704922923093907
22094290 62 18335420158096341074
231179 274 17968936384086486621
23175994 123 15647323110040252050
23402539 116 18059846273071424276
23419403 2 16323922076747560138
23557571 272 17488738011970372966
23559900 14 17988922289224085616
2748010 2 17262138733348140635
3060560 45 18339925896348549358
474 4 18261115136595359761
4990 188 16845568691446478597
537710 114 18271523105353703161
58051976 378 18270678667485791717
7364860 26 18127413345488937191
7832392 63 18336824281853110036
9981440 41 17542499887858668280

>  <PUBCHEM_SHAPE_MULTIPOLES>
313.51
6.75
2.25
0.97
3
0.6
-0.15
-3.7
-0.12
-0.27
-0.29
-0.29
-0.18
-0.56

>  <PUBCHEM_SHAPE_SELFOVERLAP>
660.574

>  <PUBCHEM_SHAPE_VOLUME>
181.4

>  <PUBCHEM_COORDINATE_TYPE>
2
5
10

$$$$
9856996
 OpenBabel12092211553D

 27 28  0  0  1  0  0  0  0  0999 V2000
   -4.8081    1.4276   -0.1446 Br  0  0  0  0  0  0  0  0  0  0  0  0
    4.2842    2.0222    0.7991 O   0  0  0  0  0  0  0  0  0  0  0  0
    4.2882    0.2750    2.2439 O   0  0  0  0  0  0  0  0  0  0  0  0
   -0.9988   -2.3341   -0.5475 N   0  0  0  0  0  0  0  0  0  0  0  0
    2.2928    1.1267   -0.5251 N   0  0  0  0  0  0  0  0  0  0  0  0
    0.6524   -1.1965    0.4046 C   0  0  0  0  0  0  0  0  0  0  0  0
    1.9803   -0.8386    0.9432 C   0  0  0  0  0  0  0  0  0  0  0  0
   -0.5080   -0.3730    0.3963 C   0  0  0  0  0  0  0  0  0  0  0  0
    2.3136    0.6694    0.8669 C   0  0  1  0  0  0  0  0  0  0  0  0
   -1.5295   -1.1104   -0.2063 C   0  0  0  0  0  0  0  0  0  0  0  0
    0.3192   -2.3955   -0.1824 C   0  0  0  0  0  0  0  0  0  0  0  0
   -0.7883    0.9330    0.8448 C   0  0  0  0  0  0  0  0  0  0  0  0
   -2.8223   -0.6050   -0.3834 C   0  0  0  0  0  0  0  0  0  0  0  0
   -2.0769    1.4517    0.6742 C   0  0  0  0  0  0  0  0  0  0  0  0
    3.7111    0.9446    1.3963 C   0  0  0  0  0  0  0  0  0  0  0  0
   -3.0769    0.6928    0.0693 C   0  0  0  0  0  0  0  0  0  0  0  0
    2.7500   -1.4016    0.3974 H   0  0  0  0  0  0  0  0  0  0  0  0
    2.0490   -1.1782    1.9861 H   0  0  0  0  0  0  0  0  0  0  0  0
    1.5893    1.2595    1.4405 H   0  0  0  0  0  0  0  0  0  0  0  0
    0.9002   -3.2868   -0.3743 H   0  0  0  0  0  0  0  0  0  0  0  0
   -1.5092   -3.0787   -1.0019 H   0  0  0  0  0  0  0  0  0  0  0  0
   -0.0242    1.5380    1.3240 H   0  0  0  0  0  0  0  0  0  0  0  0
   -3.5919   -1.2071   -0.8564 H   0  0  0  0  0  0  0  0  0  0  0  0
   -2.2819    2.4605    1.0255 H   0  0  0  0  0  0  0  0  0  0  0  0
    2.4281    2.1367   -0.5546 H   0  0  0  0  0  0  0  0  0  0  0  0
    1.3721    0.9525   -0.9265 H   0  0  0  0  0  0  0  0  0  0  0  0
    5.1885    2.1908    1.1397 H   0  0  0  0  0  0  0  0  0  0  0  0
  1 16  1  0  0  0  0
  2 15  1  0  0  0  0
  2 27  1  0  0  0  0
  3 15  2  0  0  0  0
  4 10  1  0  0  0  0
  4 11  1  0  0  0  0
  4 21  1  0  0  0  0
  5  9  1  0  0  0  0
  5 25  1  0  0  0  0
  5 26  1  0  0  0  0
  6  7  1  0  0  0  0
  6  8  1  0  0  0  0
  6 11  2  0  0  0  0
  7  9  1  0  0  0  0
  7 17  1  0  0  0  0
  7 18  1  0  0  0  0
  8 10  2  0  0  0  0
  8 12  1  0  0  0  0
  9 15  1  0  0  0  0
  9 19  1  1  0  0  0
 10 13  1  0  0  0  0
 11 20  1  0  0  0  0
 12 14  2  0  0  0  0
 12 22  1  0  0  0  0
 13 16  2  0  0  0  0
 13 23  1  0  0  0  0
 14 16  1  0  0  0  0
 14 24  1  0  0  0  0
M  END
>  <PUBCHEM_COMPOUND_CID>
9856996

>  <PUBCHEM_CONFORMER_RMSD>
0.6

>  <PUBCHEM_CONFORMER_DIVERSEORDER>
1
17
15
19
6
11
14
16
5
9
12
13
18
7
3
2
4
8
10

>  <PUBCHEM_MMFF94_PARTIAL_CHARGES>
23
1 -0.11
10 -0.15
11 -0.3
12 -0.15
13 -0.15
14 -0.15
15 0.66
16 0.11
2 -0.65
20 0.15
21 0.27
22 0.15
23 0.15
24 0.15
25 0.36
26 0.36
27 0.5
3 -0.57
4 0.03
5 -0.99
6 -0.18
7 0.18
9 0.33

>  <PUBCHEM_EFFECTIVE_ROTOR_COUNT>
3

>  <PUBCHEM_PHARMACOPHORE_FEATURES>
10
1 1 hydrophobe
1 2 acceptor
1 3 acceptor
1 4 cation
1 4 donor
1 5 cation
1 5 donor
3 2 3 15 anion
5 4 6 8 10 11 rings
6 8 10 12 13 14 16 rings

>  <PUBCHEM_HEAVY_ATOM_COUNT>
16

>  <PUBCHEM_ATOM_DEF_STEREO_COUNT>
1

>  <PUBCHEM_ATOM_UDEF_STEREO_COUNT>
0

>  <PUBCHEM_BOND_DEF_STEREO_COUNT>
0

>  <PUBCHEM_BOND_UDEF_STEREO_COUNT>
0

>  <PUBCHEM_ISOTOPIC_ATOM_COUNT>
0

>  <PUBCHEM_COMPONENT_COUNT>
1

>  <PUBCHEM_CACTVS_TAUTO_COUNT>
1

>  <PUBCHEM_CONFORMER_ID>
009667E400000001

>  <PUBCHEM_MMFF94_ENERGY>
21.0466

>  <PUBCHEM_FEATURE_SELFOVERLAP>
50.894

>  <PUBCHEM_SHAPE_FINGERPRINT>
11640471 11 17897169241491425364
13380535 76 18410294670965602035
13583140 156 17168139023441679835
14252887 29 11458712659804682608
15775835 57 18333737935238967004
16945 1 18336826377533705283
17134986 127 18410578378913635645
18186145 218 18272381874989339273
20645476 183 18408879646661047803
21524375 3 18335704922923093907
22094290 62 18335420158096341074
231179 274 17968936384086486621
23175994 123 15647323110040252050
23402539 116 18059846273071424276
23419403 2 16323922076747560138
23557571 272 17488738011970372966
23559900 14 17988922289224085616
2748010 2 17262138733348140635
3060560 45 18339925896348549358
474 4 18261115136595359761
4990 188 16845568691446478597
537710 114 18271523105353703161
58051976 378 18270678667485791717
7364860 26 18127413345488937191
7832392 63 18336824281853110036
9981440 41 17542499887858668280

>  <PUBCHEM_SHAPE_MULTIPOLES>
313.51
6.75
2.25
0.97
3
0.6
-0.15
-3.7
-0.12
-0.27
-0.29
-0.29
-0.18
-0.56

>  <PUBCHEM_SHAPE_SELFOVERLAP>
660.574

>  <PUBCHEM_SHAPE_VOLUME>
181.4

>  <PUBCHEM_COORDINATE_TYPE>
2
5
10

$$$$
9856996
 OpenBabel12092211553D

 27 28  0  0  1  0  0  0  0  0999 V2000
   -4.8081    1.4276   -0.1446 Br  0  0  0  0  0  0  0  0  0  0  0  0
    3.7068   -2.1947   -2.0052 O   0  0  0  0  0  0  0  0  0  0  0  0
    2.9283   -3.3044   -0.1878 O   0  0  0  0  0  0  0  0  0  0  0  0
   -0.9988   -2.3341   -0.5475 N   0  0  0  0  0  0  0  0  0  0  0  0
    2.8474    0.0670   -1.1884 N   0  0  0  0  0  0  0  0  0  0  0  0
    0.6524   -1.1965    0.4046 C   0  0  0  0  0  0  0  0  0  0  0  0
    1.9803   -0.8386    0.9432 C   0  0  0  0  0  0  0  0  0  0  0  0
   -0.5080   -0.3730    0.3963 C   0  0  0  0  0  0  0  0  0  0  0  0
    3.1217   -0.8743   -0.0994 C   0  0  1  0  0  0  0  0  0  0  0  0
   -1.5295   -1.1104   -0.2063 C   0  0  0  0  0  0  0  0  0  0  0  0
    0.3192   -2.3955   -0.1824 C   0  0  0  0  0  0  0  0  0  0  0  0
   -0.7883    0.9330    0.8448 C   0  0  0  0  0  0  0  0  0  0  0  0
   -2.8223   -0.6050   -0.3834 C   0  0  0  0  0  0  0  0  0  0  0  0
   -2.0769    1.4517    0.6742 C   0  0  0  0  0  0  0  0  0  0  0  0
    3.2378   -2.2514   -0.7311 C   0  0  0  0  0  0  0  0  0  0  0  0
   -3.0769    0.6928    0.0693 C   0  0  0  0  0  0  0  0  0  0  0  0
    2.2279   -1.5236    1.7659 H   0  0  0  0  0  0  0  0  0  0  0  0
    1.9272    0.1611    1.3964 H   0  0  0  0  0  0  0  0  0  0  0  0
    4.0803   -0.6080    0.3609 H   0  0  0  0  0  0  0  0  0  0  0  0
    0.9002   -3.2868   -0.3743 H   0  0  0  0  0  0  0  0  0  0  0  0
   -1.5092   -3.0787   -1.0019 H   0  0  0  0  0  0  0  0  0  0  0  0
   -0.0242    1.5380    1.3240 H   0  0  0  0  0  0  0  0  0  0  0  0
   -3.5919   -1.2071   -0.8564 H   0  0  0  0  0  0  0  0  0  0  0  0
   -2.2819    2.4605    1.0255 H   0  0  0  0  0  0  0  0  0  0  0  0
    3.6453    0.0972   -1.8224 H   0  0  0  0  0  0  0  0  0  0  0  0
    2.7518    1.0080   -0.8085 H   0  0  0  0  0  0  0  0  0  0  0  0
    3.7731   -3.0857   -2.4101 H   0  0  0  0  0  0  0  0  0  0  0  0
  1 16  1  0  0  0  0
  2 15  1  0  0  0  0
  2 27  1  0  0  0  0
  3 15  2  0  0  0  0
  4 10  1  0  0  0  0
  4 11  1  0  0  0  0
  4 21  1  0  0  0  0
  5  9  1  0  0  0  0
  5 25  1  0  0  0  0
  5 26  1  0  0  0  0
  6  7  1  0  0  0  0
  6  8  1  0  0  0  0
  6 11  2  0  0  0  0
  7  9  1  0  0  0  0
  7 17  1  0  0  0  0
  7 18  1  0  0  0  0
  8 10  2  0  0  0  0
  8 12  1  0  0  0  0
  9 15  1  0  0  0  0
  9 19  1  1  0  0  0
 10 13  1  0  0  0  0
 11 20  1  0  0  0  0
 12 14  2  0  0  0  0
 12 22  1  0  0  0  0
 13 16  2  0  0  0  0
 13 23  1  0  0  0  0
 14 16  1  0  0  0  0
 14 24  1  0  0  0  0
M  END
>  <PUBCHEM_COMPOUND_CID>
9856996

>  <PUBCHEM_CONFORMER_RMSD>
0.6

>  <PUBCHEM_CONFORMER_DIVERSEORDER>
1
17
15
19
6
11
14
16
5
9
12
13
18
7
3
2
4
8
10

>  <PUBCHEM_MMFF94_PARTIAL_CHARGES>
23
1 -0.11
10 -0.15
11 -0.3
12 -0.15
13 -0.15
14 -0.15
15 0.66
16 0.11
2 -0.65
20 0.15
21 0.27
22 0.15
23 0.15
24 0.15
25 0.36
26 0.36
27 0.5
3 -0.57
4 0.03
5 -0.99
6 -0.18
7 0.18
9 0.33

>  <PUBCHEM_EFFECTIVE_ROTOR_COUNT>
3

>  <PUBCHEM_PHARMACOPHORE_FEATURES>
10
1 1 hydrophobe
1 2 acceptor
1 3 acceptor
1 4 cation
1 4 donor
1 5 cation
1 5 donor
3 2 3 15 anion
5 4 6 8 10 11 rings
6 8 10 12 13 14 16 rings

>  <PUBCHEM_HEAVY_ATOM_COUNT>
16

>  <PUBCHEM_ATOM_DEF_STEREO_COUNT>
1

>  <PUBCHEM_ATOM_UDEF_STEREO_COUNT>
0

>  <PUBCHEM_BOND_DEF_STEREO_COUNT>
0

>  <PUBCHEM_BOND_UDEF_STEREO_COUNT>
0

>  <PUBCHEM_ISOTOPIC_ATOM_COUNT>
0

>  <PUBCHEM_COMPONENT_COUNT>
1

>  <PUBCHEM_CACTVS_TAUTO_COUNT>
1

>  <PUBCHEM_CONFORMER_ID>
009667E400000001

>  <PUBCHEM_MMFF94_ENERGY>
21.0466

>  <PUBCHEM_FEATURE_SELFOVERLAP>
50.894

>  <PUBCHEM_SHAPE_FINGERPRINT>
11640471 11 17897169241491425364
13380535 76 18410294670965602035
13583140 156 17168139023441679835
14252887 29 11458712659804682608
15775835 57 18333737935238967004
16945 1 18336826377533705283
17134986 127 18410578378913635645
18186145 218 18272381874989339273
20645476 183 18408879646661047803
21524375 3 18335704922923093907
22094290 62 18335420158096341074
231179 274 17968936384086486621
23175994 123 15647323110040252050
23402539 116 18059846273071424276
23419403 2 16323922076747560138
23557571 272 17488738011970372966
23559900 14 17988922289224085616
2748010 2 17262138733348140635
3060560 45 18339925896348549358
474 4 18261115136595359761
4990 188 16845568691446478597
537710 114 18271523105353703161
58051976 378 18270678667485791717
7364860 26 18127413345488937191
7832392 63 18336824281853110036
9981440 41 17542499887858668280

>  <PUBCHEM_SHAPE_MULTIPOLES>
313.51
6.75
2.25
0.97
3
0.6
-0.15
-3.7
-0.12
-0.27
-0.29
-0.29
-0.18
-0.56

>  <PUBCHEM_SHAPE_SELFOVERLAP>
660.574

>  <PUBCHEM_SHAPE_VOLUME>
181.4

>  <PUBCHEM_COORDINATE_TYPE>
2
5
10

$$$$
9856996
 OpenBabel12092211553D

 27 28  0  0  1  0  0  0  0  0999 V2000
   -4.8081    1.4276   -0.1446 Br  0  0  0  0  0  0  0  0  0  0  0  0
    2.2994   -2.2514    3.8142 O   0  0  0  0  0  0  0  0  0  0  0  0
    1.2747   -3.7075    2.4105 O   0  0  0  0  0  0  0  0  0  0  0  0
   -0.9988   -2.3341   -0.5475 N   0  0  0  0  0  0  0  0  0  0  0  0
    3.0264   -3.0175    0.4200 N   0  0  0  0  0  0  0  0  0  0  0  0
    0.6524   -1.1965    0.4046 C   0  0  0  0  0  0  0  0  0  0  0  0
    1.9803   -0.8386    0.9432 C   0  0  0  0  0  0  0  0  0  0  0  0
   -0.5080   -0.3730    0.3963 C   0  0  0  0  0  0  0  0  0  0  0  0
    2.7929   -2.0378    1.4843 C   0  0  1  0  0  0  0  0  0  0  0  0
   -1.5295   -1.1104   -0.2063 C   0  0  0  0  0  0  0  0  0  0  0  0
    0.3192   -2.3955   -0.1824 C   0  0  0  0  0  0  0  0  0  0  0  0
   -0.7883    0.9330    0.8448 C   0  0  0  0  0  0  0  0  0  0  0  0
   -2.8223   -0.6050   -0.3834 C   0  0  0  0  0  0  0  0  0  0  0  0
   -2.0769    1.4517    0.6742 C   0  0  0  0  0  0  0  0  0  0  0  0
    2.0305   -2.7594    2.5829 C   0  0  0  0  0  0  0  0  0  0  0  0
   -3.0769    0.6928    0.0693 C   0  0  0  0  0  0  0  0  0  0  0  0
    1.8517   -0.1028    1.7491 H   0  0  0  0  0  0  0  0  0  0  0  0
    2.5585   -0.3246    0.1627 H   0  0  0  0  0  0  0  0  0  0  0  0
    3.7622   -1.7083    1.8762 H   0  0  0  0  0  0  0  0  0  0  0  0
    0.9002   -3.2868   -0.3743 H   0  0  0  0  0  0  0  0  0  0  0  0
   -1.5092   -3.0787   -1.0019 H   0  0  0  0  0  0  0  0  0  0  0  0
   -0.0242    1.5380    1.3240 H   0  0  0  0  0  0  0  0  0  0  0  0
   -3.5919   -1.2071   -0.8564 H   0  0  0  0  0  0  0  0  0  0  0  0
   -2.2819    2.4605    1.0255 H   0  0  0  0  0  0  0  0  0  0  0  0
    3.6347   -3.7589    0.7661 H   0  0  0  0  0  0  0  0  0  0  0  0
    3.5298   -2.5731   -0.3469 H   0  0  0  0  0  0  0  0  0  0  0  0
    1.8099   -2.7254    4.5199 H   0  0  0  0  0  0  0  0  0  0  0  0
  1 16  1  0  0  0  0
  2 15  1  0  0  0  0
  2 27  1  0  0  0  0
  3 15  2  0  0  0  0
  4 10  1  0  0  0  0
  4 11  1  0  0  0  0
  4 21  1  0  0  0  0
  5  9  1  0  0  0  0
  5 25  1  0  0  0  0
  5 26  1  0  0  0  0
  6  7  1  0  0  0  0
  6  8  1  0  0  0  0
  6 11  2  0  0  0  0
  7  9  1  0  0  0  0
  7 17  1  0  0  0  0
  7 18  1  0  0  0  0
  8 10  2  0  0  0  0
  8 12  1  0  0  0  0
  9 15  1  0  0  0  0
  9 19  1  1  0  0  0
 10 13  1  0  0  0  0
 11 20  1  0  0  0  0
 12 14  2  0  0  0  0
 12 22  1  0  0  0  0
 13 16  2  0  0  0  0
 13 23  1  0  0  0  0
 14 16  1  0  0  0  0
 14 24  1  0  0  0  0
M  END
>  <PUBCHEM_COMPOUND_CID>
9856996

>  <PUBCHEM_CONFORMER_RMSD>
0.6

>  <PUBCHEM_CONFORMER_DIVERSEORDER>
1
17
15
19
6
11
14
16
5
9
12
13
18
7
3
2
4
8
10

>  <PUBCHEM_MMFF94_PARTIAL_CHARGES>
23
1 -0.11
10 -0.15
11 -0.3
12 -0.15
13 -0.15
14 -0.15
15 0.66
16 0.11
2 -0.65
20 0.15
21 0.27
22 0.15
23 0.15
24 0.15
25 0.36
26 0.36
27 0.5
3 -0.57
4 0.03
5 -0.99
6 -0.18
7 0.18
9 0.33

>  <PUBCHEM_EFFECTIVE_ROTOR_COUNT>
3

>  <PUBCHEM_PHARMACOPHORE_FEATURES>
10
1 1 hydrophobe
1 2 acceptor
1 3 acceptor
1 4 cation
1 4 donor
1 5 cation
1 5 donor
3 2 3 15 anion
5 4 6 8 10 11 rings
6 8 10 12 13 14 16 rings

>  <PUBCHEM_HEAVY_ATOM_COUNT>
16

>  <PUBCHEM_ATOM_DEF_STEREO_COUNT>
1

>  <PUBCHEM_ATOM_UDEF_STEREO_COUNT>
0

>  <PUBCHEM_BOND_DEF_STEREO_COUNT>
0

>  <PUBCHEM_BOND_UDEF_STEREO_COUNT>
0

>  <PUBCHEM_ISOTOPIC_ATOM_COUNT>
0

>  <PUBCHEM_COMPONENT_COUNT>
1

>  <PUBCHEM_CACTVS_TAUTO_COUNT>
1

>  <PUBCHEM_CONFORMER_ID>
009667E400000001

>  <PUBCHEM_MMFF94_ENERGY>
21.0466

>  <PUBCHEM_FEATURE_SELFOVERLAP>
50.894

>  <PUBCHEM_SHAPE_FINGERPRINT>
11640471 11 17897169241491425364
13380535 76 18410294670965602035
13583140 156 17168139023441679835
14252887 29 11458712659804682608
15775835 57 18333737935238967004
16945 1 18336826377533705283
17134986 127 18410578378913635645
18186145 218 18272381874989339273
20645476 183 18408879646661047803
21524375 3 18335704922923093907
22094290 62 18335420158096341074
231179 274 17968936384086486621
23175994 123 15647323110040252050
23402539 116 18059846273071424276
23419403 2 16323922076747560138
23557571 272 17488738011970372966
23559900 14 17988922289224085616
2748010 2 17262138733348140635
3060560 45 18339925896348549358
474 4 18261115136595359761
4990 188 16845568691446478597
537710 114 18271523105353703161
58051976 378 18270678667485791717
7364860 26 18127413345488937191
7832392 63 18336824281853110036
9981440 41 17542499887858668280

>  <PUBCHEM_SHAPE_MULTIPOLES>
313.51
6.75
2.25
0.97
3
0.6
-0.15
-3.7
-0.12
-0.27
-0.29
-0.29
-0.18
-0.56

>  <PUBCHEM_SHAPE_SELFOVERLAP>
660.574

>  <PUBCHEM_SHAPE_VOLUME>
181.4

>  <PUBCHEM_COORDINATE_TYPE>
2
5
10

$$$$
9856996
 OpenBabel12092211553D

 27 28  0  0  1  0  0  0  0  0999 V2000
   -4.8081    1.4276   -0.1446 Br  0  0  0  0  0  0  0  0  0  0  0  0
    1.6906    0.3152    4.2210 O   0  0  0  0  0  0  0  0  0  0  0  0
   -0.0739   -0.6976    3.2203 O   0  0  0  0  0  0  0  0  0  0  0  0
   -0.9988   -2.3341   -0.5475 N   0  0  0  0  0  0  0  0  0  0  0  0
    2.0247   -2.6389    2.6381 N   0  0  0  0  0  0  0  0  0  0  0  0
    0.6524   -1.1965    0.4046 C   0  0  0  0  0  0  0  0  0  0  0  0
    1.9803   -0.8386    0.9432 C   0  0  0  0  0  0  0  0  0  0  0  0
   -0.5080   -0.3730    0.3963 C   0  0  0  0  0  0  0  0  0  0  0  0
    2.1808   -1.1963    2.4342 C   0  0  1  0  0  0  0  0  0  0  0  0
   -1.5295   -1.1104   -0.2063 C   0  0  0  0  0  0  0  0  0  0  0  0
    0.3192   -2.3955   -0.1824 C   0  0  0  0  0  0  0  0  0  0  0  0
   -0.7883    0.9330    0.8448 C   0  0  0  0  0  0  0  0  0  0  0  0
   -2.8223   -0.6050   -0.3834 C   0  0  0  0  0  0  0  0  0  0  0  0
   -2.0769    1.4517    0.6742 C   0  0  0  0  0  0  0  0  0  0  0  0
    1.1346   -0.5167    3.3015 C   0  0  0  0  0  0  0  0  0  0  0  0
   -3.0769    0.6928    0.0693 C   0  0  0  0  0  0  0  0  0  0  0  0
    2.1396    0.2406    0.8113 H   0  0  0  0  0  0  0  0  0  0  0  0
    2.7572   -1.3283    0.3397 H   0  0  0  0  0  0  0  0  0  0  0  0
    3.1792   -0.9000    2.7765 H   0  0  0  0  0  0  0  0  0  0  0  0
    0.9002   -3.2868   -0.3743 H   0  0  0  0  0  0  0  0  0  0  0  0
   -1.5092   -3.0787   -1.0019 H   0  0  0  0  0  0  0  0  0  0  0  0
   -0.0242    1.5380    1.3240 H   0  0  0  0  0  0  0  0  0  0  0  0
   -3.5919   -1.2071   -0.8564 H   0  0  0  0  0  0  0  0  0  0  0  0
   -2.2819    2.4605    1.0255 H   0  0  0  0  0  0  0  0  0  0  0  0
    2.2439   -2.8725    3.6060 H   0  0  0  0  0  0  0  0  0  0  0  0
    2.7038   -3.1388    2.0654 H   0  0  0  0  0  0  0  0  0  0  0  0
    1.0111    0.7456    4.7824 H   0  0  0  0  0  0  0  0  0  0  0  0
  1 16  1  0  0  0  0
  2 15  1  0  0  0  0
  2 27  1  0  0  0  0
  3 15  2  0  0  0  0
  4 10  1  0  0  0  0
  4 11  1  0  0  0  0
  4 21  1  0  0  0  0
  5  9  1  0  0  0  0
  5 25  1  0  0  0  0
  5 26  1  0  0  0  0
  6  7  1  0  0  0  0
  6  8  1  0  0  0  0
  6 11  2  0  0  0  0
  7  9  1  0  0  0  0
  7 17  1  0  0  0  0
  7 18  1  0  0  0  0
  8 10  2  0  0  0  0
  8 12  1  0  0  0  0
  9 15  1  0  0  0  0
  9 19  1  1  0  0  0
 10 13  1  0  0  0  0
 11 20  1  0  0  0  0
 12 14  2  0  0  0  0
 12 22  1  0  0  0  0
 13 16  2  0  0  0  0
 13 23  1  0  0  0  0
 14 16  1  0  0  0  0
 14 24  1  0  0  0  0
M  END
>  <PUBCHEM_COMPOUND_CID>
9856996

>  <PUBCHEM_CONFORMER_RMSD>
0.6

>  <PUBCHEM_CONFORMER_DIVERSEORDER>
1
17
15
19
6
11
14
16
5
9
12
13
18
7
3
2
4
8
10

>  <PUBCHEM_MMFF94_PARTIAL_CHARGES>
23
1 -0.11
10 -0.15
11 -0.3
12 -0.15
13 -0.15
14 -0.15
15 0.66
16 0.11
2 -0.65
20 0.15
21 0.27
22 0.15
23 0.15
24 0.15
25 0.36
26 0.36
27 0.5
3 -0.57
4 0.03
5 -0.99
6 -0.18
7 0.18
9 0.33

>  <PUBCHEM_EFFECTIVE_ROTOR_COUNT>
3

>  <PUBCHEM_PHARMACOPHORE_FEATURES>
10
1 1 hydrophobe
1 2 acceptor
1 3 acceptor
1 4 cation
1 4 donor
1 5 cation
1 5 donor
3 2 3 15 anion
5 4 6 8 10 11 rings
6 8 10 12 13 14 16 rings

>  <PUBCHEM_HEAVY_ATOM_COUNT>
16

>  <PUBCHEM_ATOM_DEF_STEREO_COUNT>
1

>  <PUBCHEM_ATOM_UDEF_STEREO_COUNT>
0

>  <PUBCHEM_BOND_DEF_STEREO_COUNT>
0

>  <PUBCHEM_BOND_UDEF_STEREO_COUNT>
0

>  <PUBCHEM_ISOTOPIC_ATOM_COUNT>
0

>  <PUBCHEM_COMPONENT_COUNT>
1

>  <PUBCHEM_CACTVS_TAUTO_COUNT>
1

>  <PUBCHEM_CONFORMER_ID>
009667E400000001

>  <PUBCHEM_MMFF94_ENERGY>
21.0466

>  <PUBCHEM_FEATURE_SELFOVERLAP>
50.894

>  <PUBCHEM_SHAPE_FINGERPRINT>
11640471 11 17897169241491425364
13380535 76 18410294670965602035
13583140 156 17168139023441679835
14252887 29 11458712659804682608
15775835 57 18333737935238967004
16945 1 18336826377533705283
17134986 127 18410578378913635645
18186145 218 18272381874989339273
20645476 183 18408879646661047803
21524375 3 18335704922923093907
22094290 62 18335420158096341074
231179 274 17968936384086486621
23175994 123 15647323110040252050
23402539 116 18059846273071424276
23419403 2 16323922076747560138
23557571 272 17488738011970372966
23559900 14 17988922289224085616
2748010 2 17262138733348140635
3060560 45 18339925896348549358
474 4 18261115136595359761
4990 188 16845568691446478597
537710 114 18271523105353703161
58051976 378 18270678667485791717
7364860 26 18127413345488937191
7832392 63 18336824281853110036
9981440 41 17542499887858668280

>  <PUBCHEM_SHAPE_MULTIPOLES>
313.51
6.75
2.25
0.97
3
0.6
-0.15
-3.7
-0.12
-0.27
-0.29
-0.29
-0.18
-0.56

>  <PUBCHEM_SHAPE_SELFOVERLAP>
660.574

>  <PUBCHEM_SHAPE_VOLUME>
181.4

>  <PUBCHEM_COORDINATE_TYPE>
2
5
10

$$$$
9856996
 OpenBabel12092211553D

 27 28  0  0  1  0  0  0  0  0999 V2000
   -4.8081    1.4276   -0.1446 Br  0  0  0  0  0  0  0  0  0  0  0  0
    4.1891   -0.6634    2.4635 O   0  0  0  0  0  0  0  0  0  0  0  0
    5.4721   -1.8707    1.0363 O   0  0  0  0  0  0  0  0  0  0  0  0
   -0.9988   -2.3341   -0.5475 N   0  0  0  0  0  0  0  0  0  0  0  0
    2.6179   -3.1574    1.5201 N   0  0  0  0  0  0  0  0  0  0  0  0
    0.6524   -1.1965    0.4046 C   0  0  0  0  0  0  0  0  0  0  0  0
    1.9803   -0.8386    0.9432 C   0  0  0  0  0  0  0  0  0  0  0  0
   -0.5080   -0.3730    0.3963 C   0  0  0  0  0  0  0  0  0  0  0  0
    3.0450   -1.9515    0.8054 C   0  0  1  0  0  0  0  0  0  0  0  0
   -1.5295   -1.1104   -0.2063 C   0  0  0  0  0  0  0  0  0  0  0  0
    0.3192   -2.3955   -0.1824 C   0  0  0  0  0  0  0  0  0  0  0  0
   -0.7883    0.9330    0.8448 C   0  0  0  0  0  0  0  0  0  0  0  0
   -2.8223   -0.6050   -0.3834 C   0  0  0  0  0  0  0  0  0  0  0  0
   -2.0769    1.4517    0.6742 C   0  0  0  0  0  0  0  0  0  0  0  0
    4.3643   -1.5210    1.4242 C   0  0  0  0  0  0  0  0  0  0  0  0
   -3.0769    0.6928    0.0693 C   0  0  0  0  0  0  0  0  0  0  0  0
    1.8754   -0.5755    2.0049 H   0  0  0  0  0  0  0  0  0  0  0  0
    2.3361    0.0745    0.4459 H   0  0  0  0  0  0  0  0  0  0  0  0
    3.2087   -2.2078   -0.2478 H   0  0  0  0  0  0  0  0  0  0  0  0
    0.9002   -3.2868   -0.3743 H   0  0  0  0  0  0  0  0  0  0  0  0
   -1.5092   -3.0787   -1.0019 H   0  0  0  0  0  0  0  0  0  0  0  0
   -0.0242    1.5380    1.3240 H   0  0  0  0  0  0  0  0  0  0  0  0
   -3.5919   -1.2071   -0.8564 H   0  0  0  0  0  0  0  0  0  0  0  0
   -2.2819    2.4605    1.0255 H   0  0  0  0  0  0  0  0  0  0  0  0
    3.2852   -3.9092    1.3500 H   0  0  0  0  0  0  0  0  0  0  0  0
    1.7271   -3.4786    1.1429 H   0  0  0  0  0  0  0  0  0  0  0  0
    5.0441   -0.3836    2.8545 H   0  0  0  0  0  0  0  0  0  0  0  0
  1 16  1  0  0  0  0
  2 15  1  0  0  0  0
  2 27  1  0  0  0  0
  3 15  2  0  0  0  0
  4 10  1  0  0  0  0
  4 11  1  0  0  0  0
  4 21  1  0  0  0  0
  5  9  1  0  0  0  0
  5 25  1  0  0  0  0
  5 26  1  0  0  0  0
  6  7  1  0  0  0  0
  6  8  1  0  0  0  0
  6 11  2  0  0  0  0
  7  9  1  0  0  0  0
  7 17  1  0  0  0  0
  7 18  1  0  0  0  0
  8 10  2  0  0  0  0
  8 12  1  0  0  0  0
  9 15  1  0  0  0  0
  9 19  1  6  0  0  0
 10 13  1  0  0  0  0
 11 20  1  0  0  0  0
 12 14  2  0  0  0  0
 12 22  1  0  0  0  0
 13 16  2  0  0  0  0
 13 23  1  0  0  0  0
 14 16  1  0  0  0  0
 14 24  1  0  0  0  0
M  END
>  <PUBCHEM_COMPOUND_CID>
9856996

>  <PUBCHEM_CONFORMER_RMSD>
0.6

>  <PUBCHEM_CONFORMER_DIVERSEORDER>
1
17
15
19
6
11
14
16
5
9
12
13
18
7
3
2
4
8
10

>  <PUBCHEM_MMFF94_PARTIAL_CHARGES>
23
1 -0.11
10 -0.15
11 -0.3
12 -0.15
13 -0.15
14 -0.15
15 0.66
16 0.11
2 -0.65
20 0.15
21 0.27
22 0.15
23 0.15
24 0.15
25 0.36
26 0.36
27 0.5
3 -0.57
4 0.03
5 -0.99
6 -0.18
7 0.18
9 0.33

>  <PUBCHEM_EFFECTIVE_ROTOR_COUNT>
3

>  <PUBCHEM_PHARMACOPHORE_FEATURES>
10
1 1 hydrophobe
1 2 acceptor
1 3 acceptor
1 4 cation
1 4 donor
1 5 cation
1 5 donor
3 2 3 15 anion
5 4 6 8 10 11 rings
6 8 10 12 13 14 16 rings

>  <PUBCHEM_HEAVY_ATOM_COUNT>
16

>  <PUBCHEM_ATOM_DEF_STEREO_COUNT>
1

>  <PUBCHEM_ATOM_UDEF_STEREO_COUNT>
0

>  <PUBCHEM_BOND_DEF_STEREO_COUNT>
0

>  <PUBCHEM_BOND_UDEF_STEREO_COUNT>
0

>  <PUBCHEM_ISOTOPIC_ATOM_COUNT>
0

>  <PUBCHEM_COMPONENT_COUNT>
1

>  <PUBCHEM_CACTVS_TAUTO_COUNT>
1

>  <PUBCHEM_CONFORMER_ID>
009667E400000001

>  <PUBCHEM_MMFF94_ENERGY>
21.0466

>  <PUBCHEM_FEATURE_SELFOVERLAP>
50.894

>  <PUBCHEM_SHAPE_FINGERPRINT>
11640471 11 17897169241491425364
13380535 76 18410294670965602035
13583140 156 17168139023441679835
14252887 29 11458712659804682608
15775835 57 18333737935238967004
16945 1 18336826377533705283
17134986 127 18410578378913635645
18186145 218 18272381874989339273
20645476 183 18408879646661047803
21524375 3 18335704922923093907
22094290 62 18335420158096341074
231179 274 17968936384086486621
23175994 123 15647323110040252050
23402539 116 18059846273071424276
23419403 2 16323922076747560138
23557571 272 17488738011970372966
23559900 14 17988922289224085616
2748010 2 17262138733348140635
3060560 45 18339925896348549358
474 4 18261115136595359761
4990 188 16845568691446478597
537710 114 18271523105353703161
58051976 378 18270678667485791717
7364860 26 18127413345488937191
7832392 63 18336824281853110036
9981440 41 17542499887858668280

>  <PUBCHEM_SHAPE_MULTIPOLES>
313.51
6.75
2.25
0.97
3
0.6
-0.15
-3.7
-0.12
-0.27
-0.29
-0.29
-0.18
-0.56

>  <PUBCHEM_SHAPE_SELFOVERLAP>
660.574

>  <PUBCHEM_SHAPE_VOLUME>
181.4

>  <PUBCHEM_COORDINATE_TYPE>
2
5
10

$$$$
9856996
 OpenBabel12092211553D

 27 28  0  0  1  0  0  0  0  0999 V2000
   -4.8081    1.4276   -0.1446 Br  0  0  0  0  0  0  0  0  0  0  0  0
    0.2669   -2.2152    2.8735 O   0  0  0  0  0  0  0  0  0  0  0  0
    1.7501   -1.3967    4.3804 O   0  0  0  0  0  0  0  0  0  0  0  0
   -0.9988   -2.3341   -0.5475 N   0  0  0  0  0  0  0  0  0  0  0  0
    2.5791   -3.1444    1.6072 N   0  0  0  0  0  0  0  0  0  0  0  0
    0.6524   -1.1965    0.4046 C   0  0  0  0  0  0  0  0  0  0  0  0
    1.9803   -0.8386    0.9432 C   0  0  0  0  0  0  0  0  0  0  0  0
   -0.5080   -0.3730    0.3963 C   0  0  0  0  0  0  0  0  0  0  0  0
    2.4766   -1.7614    2.0804 C   0  0  1  0  0  0  0  0  0  0  0  0
   -1.5295   -1.1104   -0.2063 C   0  0  0  0  0  0  0  0  0  0  0  0
    0.3192   -2.3955   -0.1824 C   0  0  0  0  0  0  0  0  0  0  0  0
   -0.7883    0.9330    0.8448 C   0  0  0  0  0  0  0  0  0  0  0  0
   -2.8223   -0.6050   -0.3834 C   0  0  0  0  0  0  0  0  0  0  0  0
   -2.0769    1.4517    0.6742 C   0  0  0  0  0  0  0  0  0  0  0  0
    1.4963   -1.7684    3.2414 C   0  0  0  0  0  0  0  0  0  0  0  0
   -3.0769    0.6928    0.0693 C   0  0  0  0  0  0  0  0  0  0  0  0
    1.9484    0.1959    1.3122 H   0  0  0  0  0  0  0  0  0  0  0  0
    2.7127   -0.8381    0.1239 H   0  0  0  0  0  0  0  0  0  0  0  0
    3.4604   -1.4411    2.4427 H   0  0  0  0  0  0  0  0  0  0  0  0
    0.9002   -3.2868   -0.3743 H   0  0  0  0  0  0  0  0  0  0  0  0
   -1.5092   -3.0787   -1.0019 H   0  0  0  0  0  0  0  0  0  0  0  0
   -0.0242    1.5380    1.3240 H   0  0  0  0  0  0  0  0  0  0  0  0
   -3.5919   -1.2071   -0.8564 H   0  0  0  0  0  0  0  0  0  0  0  0
   -2.2819    2.4605    1.0255 H   0  0  0  0  0  0  0  0  0  0  0  0
    2.9882   -3.7257    2.3380 H   0  0  0  0  0  0  0  0  0  0  0  0
    3.2227   -3.1869    0.8179 H   0  0  0  0  0  0  0  0  0  0  0  0
   -0.3634   -2.2110    3.6252 H   0  0  0  0  0  0  0  0  0  0  0  0
  1 16  1  0  0  0  0
  2 15  1  0  0  0  0
  2 27  1  0  0  0  0
  3 15  2  0  0  0  0
  4 10  1  0  0  0  0
  4 11  1  0  0  0  0
  4 21  1  0  0  0  0
  5  9  1  0  0  0  0
  5 25  1  0  0  0  0
  5 26  1  0  0  0  0
  6  7  1  0  0  0  0
  6  8  1  0  0  0  0
  6 11  2  0  0  0  0
  7  9  1  0  0  0  0
  7 17  1  0  0  0  0
  7 18  1  0  0  0  0
  8 10  2  0  0  0  0
  8 12  1  0  0  0  0
  9 15  1  0  0  0  0
  9 19  1  1  0  0  0
 10 13  1  0  0  0  0
 11 20  1  0  0  0  0
 12 14  2  0  0  0  0
 12 22  1  0  0  0  0
 13 16  2  0  0  0  0
 13 23  1  0  0  0  0
 14 16  1  0  0  0  0
 14 24  1  0  0  0  0
M  END
>  <PUBCHEM_COMPOUND_CID>
9856996

>  <PUBCHEM_CONFORMER_RMSD>
0.6

>  <PUBCHEM_CONFORMER_DIVERSEORDER>
1
17
15
19
6
11
14
16
5
9
12
13
18
7
3
2
4
8
10

>  <PUBCHEM_MMFF94_PARTIAL_CHARGES>
23
1 -0.11
10 -0.15
11 -0.3
12 -0.15
13 -0.15
14 -0.15
15 0.66
16 0.11
2 -0.65
20 0.15
21 0.27
22 0.15
23 0.15
24 0.15
25 0.36
26 0.36
27 0.5
3 -0.57
4 0.03
5 -0.99
6 -0.18
7 0.18
9 0.33

>  <PUBCHEM_EFFECTIVE_ROTOR_COUNT>
3

>  <PUBCHEM_PHARMACOPHORE_FEATURES>
10
1 1 hydrophobe
1 2 acceptor
1 3 acceptor
1 4 cation
1 4 donor
1 5 cation
1 5 donor
3 2 3 15 anion
5 4 6 8 10 11 rings
6 8 10 12 13 14 16 rings

>  <PUBCHEM_HEAVY_ATOM_COUNT>
16

>  <PUBCHEM_ATOM_DEF_STEREO_COUNT>
1

>  <PUBCHEM_ATOM_UDEF_STEREO_COUNT>
0

>  <PUBCHEM_BOND_DEF_STEREO_COUNT>
0

>  <PUBCHEM_BOND_UDEF_STEREO_COUNT>
0

>  <PUBCHEM_ISOTOPIC_ATOM_COUNT>
0

>  <PUBCHEM_COMPONENT_COUNT>
1

>  <PUBCHEM_CACTVS_TAUTO_COUNT>
1

>  <PUBCHEM_CONFORMER_ID>
009667E400000001

>  <PUBCHEM_MMFF94_ENERGY>
21.0466

>  <PUBCHEM_FEATURE_SELFOVERLAP>
50.894

>  <PUBCHEM_SHAPE_FINGERPRINT>
11640471 11 17897169241491425364
13380535 76 18410294670965602035
13583140 156 17168139023441679835
14252887 29 11458712659804682608
15775835 57 18333737935238967004
16945 1 18336826377533705283
17134986 127 18410578378913635645
18186145 218 18272381874989339273
20645476 183 18408879646661047803
21524375 3 18335704922923093907
22094290 62 18335420158096341074
231179 274 17968936384086486621
23175994 123 15647323110040252050
23402539 116 18059846273071424276
23419403 2 16323922076747560138
23557571 272 17488738011970372966
23559900 14 17988922289224085616
2748010 2 17262138733348140635
3060560 45 18339925896348549358
474 4 18261115136595359761
4990 188 16845568691446478597
537710 114 18271523105353703161
58051976 378 18270678667485791717
7364860 26 18127413345488937191
7832392 63 18336824281853110036
9981440 41 17542499887858668280

>  <PUBCHEM_SHAPE_MULTIPOLES>
313.51
6.75
2.25
0.97
3
0.6
-0.15
-3.7
-0.12
-0.27
-0.29
-0.29
-0.18
-0.56

>  <PUBCHEM_SHAPE_SELFOVERLAP>
660.574

>  <PUBCHEM_SHAPE_VOLUME>
181.4

>  <PUBCHEM_COORDINATE_TYPE>
2
5
10

$$$$
9856996
 OpenBabel12092211553D

 27 28  0  0  1  0  0  0  0  0999 V2000
   -4.8081    1.4276   -0.1446 Br  0  0  0  0  0  0  0  0  0  0  0  0
    4.5526   -0.1033    1.1951 O   0  0  0  0  0  0  0  0  0  0  0  0
    4.0599    1.9717    1.9647 O   0  0  0  0  0  0  0  0  0  0  0  0
   -0.9988   -2.3341   -0.5475 N   0  0  0  0  0  0  0  0  0  0  0  0
    2.2928    1.1267   -0.5251 N   0  0  0  0  0  0  0  0  0  0  0  0
    0.6524   -1.1965    0.4046 C   0  0  0  0  0  0  0  0  0  0  0  0
    1.9803   -0.8386    0.9432 C   0  0  0  0  0  0  0  0  0  0  0  0
   -0.5080   -0.3730    0.3963 C   0  0  0  0  0  0  0  0  0  0  0  0
    2.3136    0.6694    0.8669 C   0  0  1  0  0  0  0  0  0  0  0  0
   -1.5295   -1.1104   -0.2063 C   0  0  0  0  0  0  0  0  0  0  0  0
    0.3192   -2.3955   -0.1824 C   0  0  0  0  0  0  0  0  0  0  0  0
   -0.7883    0.9330    0.8448 C   0  0  0  0  0  0  0  0  0  0  0  0
   -2.8223   -0.6050   -0.3834 C   0  0  0  0  0  0  0  0  0  0  0  0
   -2.0769    1.4517    0.6742 C   0  0  0  0  0  0  0  0  0  0  0  0
    3.7111    0.9446    1.3963 C   0  0  0  0  0  0  0  0  0  0  0  0
   -3.0769    0.6928    0.0693 C   0  0  0  0  0  0  0  0  0  0  0  0
    2.7500   -1.4016    0.3974 H   0  0  0  0  0  0  0  0  0  0  0  0
    2.0490   -1.1782    1.9861 H   0  0  0  0  0  0  0  0  0  0  0  0
    1.5893    1.2595    1.4405 H   0  0  0  0  0  0  0  0  0  0  0  0
    0.9002   -3.2868   -0.3743 H   0  0  0  0  0  0  0  0  0  0  0  0
   -1.5092   -3.0787   -1.0019 H   0  0  0  0  0  0  0  0  0  0  0  0
   -0.0242    1.5380    1.3240 H   0  0  0  0  0  0  0  0  0  0  0  0
   -3.5919   -1.2071   -0.8564 H   0  0  0  0  0  0  0  0  0  0  0  0
   -2.2819    2.4605    1.0255 H   0  0  0  0  0  0  0  0  0  0  0  0
    2.4281    2.1367   -0.5546 H   0  0  0  0  0  0  0  0  0  0  0  0
    1.3721    0.9525   -0.9265 H   0  0  0  0  0  0  0  0  0  0  0  0
    5.4510    0.0773    1.5449 H   0  0  0  0  0  0  0  0  0  0  0  0
  1 16  1  0  0  0  0
  2 15  1  0  0  0  0
  2 27  1  0  0  0  0
  3 15  2  0  0  0  0
  4 10  1  0  0  0  0
  4 11  1  0  0  0  0
  4 21  1  0  0  0  0
  5  9  1  0  0  0  0
  5 25  1  0  0  0  0
  5 26  1  0  0  0  0
  6  7  1  0  0  0  0
  6  8  1  0  0  0  0
  6 11  2  0  0  0  0
  7  9  1  0  0  0  0
  7 17  1  0  0  0  0
  7 18  1  0  0  0  0
  8 10  2  0  0  0  0
  8 12  1  0  0  0  0
  9 15  1  0  0  0  0
  9 19  1  1  0  0  0
 10 13  1  0  0  0  0
 11 20  1  0  0  0  0
 12 14  2  0  0  0  0
 12 22  1  0  0  0  0
 13 16  2  0  0  0  0
 13 23  1  0  0  0  0
 14 16  1  0  0  0  0
 14 24  1  0  0  0  0
M  END
>  <PUBCHEM_COMPOUND_CID>
9856996

>  <PUBCHEM_CONFORMER_RMSD>
0.6

>  <PUBCHEM_CONFORMER_DIVERSEORDER>
1
17
15
19
6
11
14
16
5
9
12
13
18
7
3
2
4
8
10

>  <PUBCHEM_MMFF94_PARTIAL_CHARGES>
23
1 -0.11
10 -0.15
11 -0.3
12 -0.15
13 -0.15
14 -0.15
15 0.66
16 0.11
2 -0.65
20 0.15
21 0.27
22 0.15
23 0.15
24 0.15
25 0.36
26 0.36
27 0.5
3 -0.57
4 0.03
5 -0.99
6 -0.18
7 0.18
9 0.33

>  <PUBCHEM_EFFECTIVE_ROTOR_COUNT>
3

>  <PUBCHEM_PHARMACOPHORE_FEATURES>
10
1 1 hydrophobe
1 2 acceptor
1 3 acceptor
1 4 cation
1 4 donor
1 5 cation
1 5 donor
3 2 3 15 anion
5 4 6 8 10 11 rings
6 8 10 12 13 14 16 rings

>  <PUBCHEM_HEAVY_ATOM_COUNT>
16

>  <PUBCHEM_ATOM_DEF_STEREO_COUNT>
1

>  <PUBCHEM_ATOM_UDEF_STEREO_COUNT>
0

>  <PUBCHEM_BOND_DEF_STEREO_COUNT>
0

>  <PUBCHEM_BOND_UDEF_STEREO_COUNT>
0

>  <PUBCHEM_ISOTOPIC_ATOM_COUNT>
0

>  <PUBCHEM_COMPONENT_COUNT>
1

>  <PUBCHEM_CACTVS_TAUTO_COUNT>
1

>  <PUBCHEM_CONFORMER_ID>
009667E400000001

>  <PUBCHEM_MMFF94_ENERGY>
21.0466

>  <PUBCHEM_FEATURE_SELFOVERLAP>
50.894

>  <PUBCHEM_SHAPE_FINGERPRINT>
11640471 11 17897169241491425364
13380535 76 18410294670965602035
13583140 156 17168139023441679835
14252887 29 11458712659804682608
15775835 57 18333737935238967004
16945 1 18336826377533705283
17134986 127 18410578378913635645
18186145 218 18272381874989339273
20645476 183 18408879646661047803
21524375 3 18335704922923093907
22094290 62 18335420158096341074
231179 274 17968936384086486621
23175994 123 15647323110040252050
23402539 116 18059846273071424276
23419403 2 16323922076747560138
23557571 272 17488738011970372966
23559900 14 17988922289224085616
2748010 2 17262138733348140635
3060560 45 18339925896348549358
474 4 18261115136595359761
4990 188 16845568691446478597
537710 114 18271523105353703161
58051976 378 18270678667485791717
7364860 26 18127413345488937191
7832392 63 18336824281853110036
9981440 41 17542499887858668280

>  <PUBCHEM_SHAPE_MULTIPOLES>
313.51
6.75
2.25
0.97
3
0.6
-0.15
-3.7
-0.12
-0.27
-0.29
-0.29
-0.18
-0.56

>  <PUBCHEM_SHAPE_SELFOVERLAP>
660.574

>  <PUBCHEM_SHAPE_VOLUME>
181.4

>  <PUBCHEM_COORDINATE_TYPE>
2
5
10

$$$$
9856996
 OpenBabel12092211553D

 27 28  0  0  1  0  0  0  0  0999 V2000
   -4.8081    1.4276   -0.1446 Br  0  0  0  0  0  0  0  0  0  0  0  0
    3.1549    1.7466   -1.4915 O   0  0  0  0  0  0  0  0  0  0  0  0
    1.2892    1.6326   -0.2083 O   0  0  0  0  0  0  0  0  0  0  0  0
   -0.9988   -2.3341   -0.5475 N   0  0  0  0  0  0  0  0  0  0  0  0
    4.2132    0.1453    0.5406 N   0  0  0  0  0  0  0  0  0  0  0  0
    0.6524   -1.1965    0.4046 C   0  0  0  0  0  0  0  0  0  0  0  0
    1.9803   -0.8386    0.9432 C   0  0  0  0  0  0  0  0  0  0  0  0
   -0.5080   -0.3730    0.3963 C   0  0  0  0  0  0  0  0  0  0  0  0
    2.9257   -0.1720   -0.0830 C   0  0  1  0  0  0  0  0  0  0  0  0
   -1.5295   -1.1104   -0.2063 C   0  0  0  0  0  0  0  0  0  0  0  0
    0.3192   -2.3955   -0.1824 C   0  0  0  0  0  0  0  0  0  0  0  0
   -0.7883    0.9330    0.8448 C   0  0  0  0  0  0  0  0  0  0  0  0
   -2.8223   -0.6050   -0.3834 C   0  0  0  0  0  0  0  0  0  0  0  0
   -2.0769    1.4517    0.6742 C   0  0  0  0  0  0  0  0  0  0  0  0
    2.3466    1.1410   -0.5825 C   0  0  0  0  0  0  0  0  0  0  0  0
   -3.0769    0.6928    0.0693 C   0  0  0  0  0  0  0  0  0  0  0  0
    2.4622   -1.7450    1.3352 H   0  0  0  0  0  0  0  0  0  0  0  0
    1.8503   -0.1745    1.8091 H   0  0  0  0  0  0  0  0  0  0  0  0
    3.1043   -0.8345   -0.9380 H   0  0  0  0  0  0  0  0  0  0  0  0
    0.9002   -3.2868   -0.3743 H   0  0  0  0  0  0  0  0  0  0  0  0
   -1.5092   -3.0787   -1.0019 H   0  0  0  0  0  0  0  0  0  0  0  0
   -0.0242    1.5380    1.3240 H   0  0  0  0  0  0  0  0  0  0  0  0
   -3.5919   -1.2071   -0.8564 H   0  0  0  0  0  0  0  0  0  0  0  0
   -2.2819    2.4605    1.0255 H   0  0  0  0  0  0  0  0  0  0  0  0
    4.8553    0.5037   -0.1656 H   0  0  0  0  0  0  0  0  0  0  0  0
    4.6364   -0.7092    0.9007 H   0  0  0  0  0  0  0  0  0  0  0  0
    2.7795    2.5968   -1.8051 H   0  0  0  0  0  0  0  0  0  0  0  0
  1 16  1  0  0  0  0
  2 15  1  0  0  0  0
  2 27  1  0  0  0  0
  3 15  2  0  0  0  0
  4 10  1  0  0  0  0
  4 11  1  0  0  0  0
  4 21  1  0  0  0  0
  5  9  1  0  0  0  0
  5 25  1  0  0  0  0
  5 26  1  0  0  0  0
  6  7  1  0  0  0  0
  6  8  1  0  0  0  0
  6 11  2  0  0  0  0
  7  9  1  0  0  0  0
  7 17  1  0  0  0  0
  7 18  1  0  0  0  0
  8 10  2  0  0  0  0
  8 12  1  0  0  0  0
  9 15  1  0  0  0  0
  9 19  1  6  0  0  0
 10 13  1  0  0  0  0
 11 20  1  0  0  0  0
 12 14  2  0  0  0  0
 12 22  1  0  0  0  0
 13 16  2  0  0  0  0
 13 23  1  0  0  0  0
 14 16  1  0  0  0  0
 14 24  1  0  0  0  0
M  END
>  <PUBCHEM_COMPOUND_CID>
9856996

>  <PUBCHEM_CONFORMER_RMSD>
0.6

>  <PUBCHEM_CONFORMER_DIVERSEORDER>
1
17
15
19
6
11
14
16
5
9
12
13
18
7
3
2
4
8
10

>  <PUBCHEM_MMFF94_PARTIAL_CHARGES>
23
1 -0.11
10 -0.15
11 -0.3
12 -0.15
13 -0.15
14 -0.15
15 0.66
16 0.11
2 -0.65
20 0.15
21 0.27
22 0.15
23 0.15
24 0.15
25 0.36
26 0.36
27 0.5
3 -0.57
4 0.03
5 -0.99
6 -0.18
7 0.18
9 0.33

>  <PUBCHEM_EFFECTIVE_ROTOR_COUNT>
3

>  <PUBCHEM_PHARMACOPHORE_FEATURES>
10
1 1 hydrophobe
1 2 acceptor
1 3 acceptor
1 4 cation
1 4 donor
1 5 cation
1 5 donor
3 2 3 15 anion
5 4 6 8 10 11 rings
6 8 10 12 13 14 16 rings

>  <PUBCHEM_HEAVY_ATOM_COUNT>
16

>  <PUBCHEM_ATOM_DEF_STEREO_COUNT>
1

>  <PUBCHEM_ATOM_UDEF_STEREO_COUNT>
0

>  <PUBCHEM_BOND_DEF_STEREO_COUNT>
0

>  <PUBCHEM_BOND_UDEF_STEREO_COUNT>
0

>  <PUBCHEM_ISOTOPIC_ATOM_COUNT>
0

>  <PUBCHEM_COMPONENT_COUNT>
1

>  <PUBCHEM_CACTVS_TAUTO_COUNT>
1

>  <PUBCHEM_CONFORMER_ID>
009667E400000001

>  <PUBCHEM_MMFF94_ENERGY>
21.0466

>  <PUBCHEM_FEATURE_SELFOVERLAP>
50.894

>  <PUBCHEM_SHAPE_FINGERPRINT>
11640471 11 17897169241491425364
13380535 76 18410294670965602035
13583140 156 17168139023441679835
14252887 29 11458712659804682608
15775835 57 18333737935238967004
16945 1 18336826377533705283
17134986 127 18410578378913635645
18186145 218 18272381874989339273
20645476 183 18408879646661047803
21524375 3 18335704922923093907
22094290 62 18335420158096341074
231179 274 17968936384086486621
23175994 123 15647323110040252050
23402539 116 18059846273071424276
23419403 2 16323922076747560138
23557571 272 17488738011970372966
23559900 14 17988922289224085616
2748010 2 17262138733348140635
3060560 45 18339925896348549358
474 4 18261115136595359761
4990 188 16845568691446478597
537710 114 18271523105353703161
58051976 378 18270678667485791717
7364860 26 18127413345488937191
7832392 63 18336824281853110036
9981440 41 17542499887858668280

>  <PUBCHEM_SHAPE_MULTIPOLES>
313.51
6.75
2.25
0.97
3
0.6
-0.15
-3.7
-0.12
-0.27
-0.29
-0.29
-0.18
-0.56

>  <PUBCHEM_SHAPE_SELFOVERLAP>
660.574

>  <PUBCHEM_SHAPE_VOLUME>
181.4

>  <PUBCHEM_COORDINATE_TYPE>
2
5
10

$$$$
9856996
 OpenBabel12092211553D

 27 28  0  0  1  0  0  0  0  0999 V2000
   -4.8081    1.4276   -0.1446 Br  0  0  0  0  0  0  0  0  0  0  0  0
    3.7149    1.1940    2.7321 O   0  0  0  0  0  0  0  0  0  0  0  0
    4.7298    0.9698    0.7170 O   0  0  0  0  0  0  0  0  0  0  0  0
   -0.9988   -2.3341   -0.5475 N   0  0  0  0  0  0  0  0  0  0  0  0
    2.2928    1.1267   -0.5251 N   0  0  0  0  0  0  0  0  0  0  0  0
    0.6524   -1.1965    0.4046 C   0  0  0  0  0  0  0  0  0  0  0  0
    1.9803   -0.8386    0.9432 C   0  0  0  0  0  0  0  0  0  0  0  0
   -0.5080   -0.3730    0.3963 C   0  0  0  0  0  0  0  0  0  0  0  0
    2.3136    0.6694    0.8669 C   0  0  1  0  0  0  0  0  0  0  0  0
   -1.5295   -1.1104   -0.2063 C   0  0  0  0  0  0  0  0  0  0  0  0
    0.3192   -2.3955   -0.1824 C   0  0  0  0  0  0  0  0  0  0  0  0
   -0.7883    0.9330    0.8448 C   0  0  0  0  0  0  0  0  0  0  0  0
   -2.8223   -0.6050   -0.3834 C   0  0  0  0  0  0  0  0  0  0  0  0
   -2.0769    1.4517    0.6742 C   0  0  0  0  0  0  0  0  0  0  0  0
    3.7111    0.9446    1.3963 C   0  0  0  0  0  0  0  0  0  0  0  0
   -3.0769    0.6928    0.0693 C   0  0  0  0  0  0  0  0  0  0  0  0
    2.7500   -1.4016    0.3974 H   0  0  0  0  0  0  0  0  0  0  0  0
    2.0490   -1.1782    1.9861 H   0  0  0  0  0  0  0  0  0  0  0  0
    1.5893    1.2595    1.4405 H   0  0  0  0  0  0  0  0  0  0  0  0
    0.9002   -3.2868   -0.3743 H   0  0  0  0  0  0  0  0  0  0  0  0
   -1.5092   -3.0787   -1.0019 H   0  0  0  0  0  0  0  0  0  0  0  0
   -0.0242    1.5380    1.3240 H   0  0  0  0  0  0  0  0  0  0  0  0
   -3.5919   -1.2071   -0.8564 H   0  0  0  0  0  0  0  0  0  0  0  0
   -2.2819    2.4605    1.0255 H   0  0  0  0  0  0  0  0  0  0  0  0
    2.4281    2.1367   -0.5546 H   0  0  0  0  0  0  0  0  0  0  0  0
    1.3721    0.9525   -0.9265 H   0  0  0  0  0  0  0  0  0  0  0  0
    4.6185    1.3776    3.0669 H   0  0  0  0  0  0  0  0  0  0  0  0
  1 16  1  0  0  0  0
  2 15  1  0  0  0  0
  2 27  1  0  0  0  0
  3 15  2  0  0  0  0
  4 10  1  0  0  0  0
  4 11  1  0  0  0  0
  4 21  1  0  0  0  0
  5  9  1  0  0  0  0
  5 25  1  0  0  0  0
  5 26  1  0  0  0  0
  6  7  1  0  0  0  0
  6  8  1  0  0  0  0
  6 11  2  0  0  0  0
  7  9  1  0  0  0  0
  7 17  1  0  0  0  0
  7 18  1  0  0  0  0
  8 10  2  0  0  0  0
  8 12  1  0  0  0  0
  9 15  1  0  0  0  0
  9 19  1  1  0  0  0
 10 13  1  0  0  0  0
 11 20  1  0  0  0  0
 12 14  2  0  0  0  0
 12 22  1  0  0  0  0
 13 16  2  0  0  0  0
 13 23  1  0  0  0  0
 14 16  1  0  0  0  0
 14 24  1  0  0  0  0
M  END
>  <PUBCHEM_COMPOUND_CID>
9856996

>  <PUBCHEM_CONFORMER_RMSD>
0.6

>  <PUBCHEM_CONFORMER_DIVERSEORDER>
1
17
15
19
6
11
14
16
5
9
12
13
18
7
3
2
4
8
10

>  <PUBCHEM_MMFF94_PARTIAL_CHARGES>
23
1 -0.11
10 -0.15
11 -0.3
12 -0.15
13 -0.15
14 -0.15
15 0.66
16 0.11
2 -0.65
20 0.15
21 0.27
22 0.15
23 0.15
24 0.15
25 0.36
26 0.36
27 0.5
3 -0.57
4 0.03
5 -0.99
6 -0.18
7 0.18
9 0.33

>  <PUBCHEM_EFFECTIVE_ROTOR_COUNT>
3

>  <PUBCHEM_PHARMACOPHORE_FEATURES>
10
1 1 hydrophobe
1 2 acceptor
1 3 acceptor
1 4 cation
1 4 donor
1 5 cation
1 5 donor
3 2 3 15 anion
5 4 6 8 10 11 rings
6 8 10 12 13 14 16 rings

>  <PUBCHEM_HEAVY_ATOM_COUNT>
16

>  <PUBCHEM_ATOM_DEF_STEREO_COUNT>
1

>  <PUBCHEM_ATOM_UDEF_STEREO_COUNT>
0

>  <PUBCHEM_BOND_DEF_STEREO_COUNT>
0

>  <PUBCHEM_BOND_UDEF_STEREO_COUNT>
0

>  <PUBCHEM_ISOTOPIC_ATOM_COUNT>
0

>  <PUBCHEM_COMPONENT_COUNT>
1

>  <PUBCHEM_CACTVS_TAUTO_COUNT>
1

>  <PUBCHEM_CONFORMER_ID>
009667E400000001

>  <PUBCHEM_MMFF94_ENERGY>
21.0466

>  <PUBCHEM_FEATURE_SELFOVERLAP>
50.894

>  <PUBCHEM_SHAPE_FINGERPRINT>
11640471 11 17897169241491425364
13380535 76 18410294670965602035
13583140 156 17168139023441679835
14252887 29 11458712659804682608
15775835 57 18333737935238967004
16945 1 18336826377533705283
17134986 127 18410578378913635645
18186145 218 18272381874989339273
20645476 183 18408879646661047803
21524375 3 18335704922923093907
22094290 62 18335420158096341074
231179 274 17968936384086486621
23175994 123 15647323110040252050
23402539 116 18059846273071424276
23419403 2 16323922076747560138
23557571 272 17488738011970372966
23559900 14 17988922289224085616
2748010 2 17262138733348140635
3060560 45 18339925896348549358
474 4 18261115136595359761
4990 188 16845568691446478597
537710 114 18271523105353703161
58051976 378 18270678667485791717
7364860 26 18127413345488937191
7832392 63 18336824281853110036
9981440 41 17542499887858668280

>  <PUBCHEM_SHAPE_MULTIPOLES>
313.51
6.75
2.25
0.97
3
0.6
-0.15
-3.7
-0.12
-0.27
-0.29
-0.29
-0.18
-0.56

>  <PUBCHEM_SHAPE_SELFOVERLAP>
660.574

>  <PUBCHEM_SHAPE_VOLUME>
181.4

>  <PUBCHEM_COORDINATE_TYPE>
2
5
10

$$$$
9856996
 OpenBabel12092211553D

 27 28  0  0  1  0  0  0  0  0999 V2000
   -4.8081    1.4276   -0.1446 Br  0  0  0  0  0  0  0  0  0  0  0  0
    1.5742    1.7515    0.3541 O   0  0  0  0  0  0  0  0  0  0  0  0
    2.5187    1.6067   -1.7020 O   0  0  0  0  0  0  0  0  0  0  0  0
   -0.9988   -2.3341   -0.5475 N   0  0  0  0  0  0  0  0  0  0  0  0
    4.2132    0.1453    0.5406 N   0  0  0  0  0  0  0  0  0  0  0  0
    0.6524   -1.1965    0.4046 C   0  0  0  0  0  0  0  0  0  0  0  0
    1.9803   -0.8386    0.9432 C   0  0  0  0  0  0  0  0  0  0  0  0
   -0.5080   -0.3730    0.3963 C   0  0  0  0  0  0  0  0  0  0  0  0
    2.9257   -0.1720   -0.0830 C   0  0  1  0  0  0  0  0  0  0  0  0
   -1.5295   -1.1104   -0.2063 C   0  0  0  0  0  0  0  0  0  0  0  0
    0.3192   -2.3955   -0.1824 C   0  0  0  0  0  0  0  0  0  0  0  0
   -0.7883    0.9330    0.8448 C   0  0  0  0  0  0  0  0  0  0  0  0
   -2.8223   -0.6050   -0.3834 C   0  0  0  0  0  0  0  0  0  0  0  0
   -2.0769    1.4517    0.6742 C   0  0  0  0  0  0  0  0  0  0  0  0
    2.3466    1.1410   -0.5825 C   0  0  0  0  0  0  0  0  0  0  0  0
   -3.0769    0.6928    0.0693 C   0  0  0  0  0  0  0  0  0  0  0  0
    2.4622   -1.7450    1.3352 H   0  0  0  0  0  0  0  0  0  0  0  0
    1.8503   -0.1745    1.8091 H   0  0  0  0  0  0  0  0  0  0  0  0
    3.1043   -0.8345   -0.9380 H   0  0  0  0  0  0  0  0  0  0  0  0
    0.9002   -3.2868   -0.3743 H   0  0  0  0  0  0  0  0  0  0  0  0
   -1.5092   -3.0787   -1.0019 H   0  0  0  0  0  0  0  0  0  0  0  0
   -0.0242    1.5380    1.3240 H   0  0  0  0  0  0  0  0  0  0  0  0
   -3.5919   -1.2071   -0.8564 H   0  0  0  0  0  0  0  0  0  0  0  0
   -2.2819    2.4605    1.0255 H   0  0  0  0  0  0  0  0  0  0  0  0
    4.8553    0.5037   -0.1656 H   0  0  0  0  0  0  0  0  0  0  0  0
    4.6364   -0.7092    0.9007 H   0  0  0  0  0  0  0  0  0  0  0  0
    1.1977    2.5949    0.0238 H   0  0  0  0  0  0  0  0  0  0  0  0
  1 16  1  0  0  0  0
  2 15  1  0  0  0  0
  2 27  1  0  0  0  0
  3 15  2  0  0  0  0
  4 10  1  0  0  0  0
  4 11  1  0  0  0  0
  4 21  1  0  0  0  0
  5  9  1  0  0  0  0
  5 25  1  0  0  0  0
  5 26  1  0  0  0  0
  6  7  1  0  0  0  0
  6  8  1  0  0  0  0
  6 11  2  0  0  0  0
  7  9  1  0  0  0  0
  7 17  1  0  0  0  0
  7 18  1  0  0  0  0
  8 10  2  0  0  0  0
  8 12  1  0  0  0  0
  9 15  1  0  0  0  0
  9 19  1  6  0  0  0
 10 13  1  0  0  0  0
 11 20  1  0  0  0  0
 12 14  2  0  0  0  0
 12 22  1  0  0  0  0
 13 16  2  0  0  0  0
 13 23  1  0  0  0  0
 14 16  1  0  0  0  0
 14 24  1  0  0  0  0
M  END
>  <PUBCHEM_COMPOUND_CID>
9856996

>  <PUBCHEM_CONFORMER_RMSD>
0.6

>  <PUBCHEM_CONFORMER_DIVERSEORDER>
1
17
15
19
6
11
14
16
5
9
12
13
18
7
3
2
4
8
10

>  <PUBCHEM_MMFF94_PARTIAL_CHARGES>
23
1 -0.11
10 -0.15
11 -0.3
12 -0.15
13 -0.15
14 -0.15
15 0.66
16 0.11
2 -0.65
20 0.15
21 0.27
22 0.15
23 0.15
24 0.15
25 0.36
26 0.36
27 0.5
3 -0.57
4 0.03
5 -0.99
6 -0.18
7 0.18
9 0.33

>  <PUBCHEM_EFFECTIVE_ROTOR_COUNT>
3

>  <PUBCHEM_PHARMACOPHORE_FEATURES>
10
1 1 hydrophobe
1 2 acceptor
1 3 acceptor
1 4 cation
1 4 donor
1 5 cation
1 5 donor
3 2 3 15 anion
5 4 6 8 10 11 rings
6 8 10 12 13 14 16 rings

>  <PUBCHEM_HEAVY_ATOM_COUNT>
16

>  <PUBCHEM_ATOM_DEF_STEREO_COUNT>
1

>  <PUBCHEM_ATOM_UDEF_STEREO_COUNT>
0

>  <PUBCHEM_BOND_DEF_STEREO_COUNT>
0

>  <PUBCHEM_BOND_UDEF_STEREO_COUNT>
0

>  <PUBCHEM_ISOTOPIC_ATOM_COUNT>
0

>  <PUBCHEM_COMPONENT_COUNT>
1

>  <PUBCHEM_CACTVS_TAUTO_COUNT>
1

>  <PUBCHEM_CONFORMER_ID>
009667E400000001

>  <PUBCHEM_MMFF94_ENERGY>
21.0466

>  <PUBCHEM_FEATURE_SELFOVERLAP>
50.894

>  <PUBCHEM_SHAPE_FINGERPRINT>
11640471 11 17897169241491425364
13380535 76 18410294670965602035
13583140 156 17168139023441679835
14252887 29 11458712659804682608
15775835 57 18333737935238967004
16945 1 18336826377533705283
17134986 127 18410578378913635645
18186145 218 18272381874989339273
20645476 183 18408879646661047803
21524375 3 18335704922923093907
22094290 62 18335420158096341074
231179 274 17968936384086486621
23175994 123 15647323110040252050
23402539 116 18059846273071424276
23419403 2 16323922076747560138
23557571 272 17488738011970372966
23559900 14 17988922289224085616
2748010 2 17262138733348140635
3060560 45 18339925896348549358
474 4 18261115136595359761
4990 188 16845568691446478597
537710 114 18271523105353703161
58051976 378 18270678667485791717
7364860 26 18127413345488937191
7832392 63 18336824281853110036
9981440 41 17542499887858668280

>  <PUBCHEM_SHAPE_MULTIPOLES>
313.51
6.75
2.25
0.97
3
0.6
-0.15
-3.7
-0.12
-0.27
-0.29
-0.29
-0.18
-0.56

>  <PUBCHEM_SHAPE_SELFOVERLAP>
660.574

>  <PUBCHEM_SHAPE_VOLUME>
181.4

>  <PUBCHEM_COORDINATE_TYPE>
2
5
10

$$$$
9856996
 OpenBabel12092211553D

 27 28  0  0  1  0  0  0  0  0999 V2000
   -4.8081    1.4276   -0.1446 Br  0  0  0  0  0  0  0  0  0  0  0  0
    3.7920   -4.1090    0.8289 O   0  0  0  0  0  0  0  0  0  0  0  0
    2.7512   -2.9134   -0.7922 O   0  0  0  0  0  0  0  0  0  0  0  0
   -0.9988   -2.3341   -0.5475 N   0  0  0  0  0  0  0  0  0  0  0  0
    4.0899   -1.5862    1.9951 N   0  0  0  0  0  0  0  0  0  0  0  0
    0.6524   -1.1965    0.4046 C   0  0  0  0  0  0  0  0  0  0  0  0
    1.9803   -0.8386    0.9432 C   0  0  0  0  0  0  0  0  0  0  0  0
   -0.5080   -0.3730    0.3963 C   0  0  0  0  0  0  0  0  0  0  0  0
    2.7929   -2.0378    1.4843 C   0  0  1  0  0  0  0  0  0  0  0  0
   -1.5295   -1.1104   -0.2063 C   0  0  0  0  0  0  0  0  0  0  0  0
    0.3192   -2.3955   -0.1824 C   0  0  0  0  0  0  0  0  0  0  0  0
   -0.7883    0.9330    0.8448 C   0  0  0  0  0  0  0  0  0  0  0  0
   -2.8223   -0.6050   -0.3834 C   0  0  0  0  0  0  0  0  0  0  0  0
   -2.0769    1.4517    0.6742 C   0  0  0  0  0  0  0  0  0  0  0  0
    3.0832   -3.0401    0.3798 C   0  0  0  0  0  0  0  0  0  0  0  0
   -3.0769    0.6928    0.0693 C   0  0  0  0  0  0  0  0  0  0  0  0
    1.8517   -0.1028    1.7491 H   0  0  0  0  0  0  0  0  0  0  0  0
    2.5585   -0.3246    0.1627 H   0  0  0  0  0  0  0  0  0  0  0  0
    2.2534   -2.5420    2.2945 H   0  0  0  0  0  0  0  0  0  0  0  0
    0.9002   -3.2868   -0.3743 H   0  0  0  0  0  0  0  0  0  0  0  0
   -1.5092   -3.0787   -1.0019 H   0  0  0  0  0  0  0  0  0  0  0  0
   -0.0242    1.5380    1.3240 H   0  0  0  0  0  0  0  0  0  0  0  0
   -3.5919   -1.2071   -0.8564 H   0  0  0  0  0  0  0  0  0  0  0  0
   -2.2819    2.4605    1.0255 H   0  0  0  0  0  0  0  0  0  0  0  0
    4.5786   -2.3702    2.4264 H   0  0  0  0  0  0  0  0  0  0  0  0
    3.9439   -0.9015    2.7360 H   0  0  0  0  0  0  0  0  0  0  0  0
    3.9824   -4.7491    0.1104 H   0  0  0  0  0  0  0  0  0  0  0  0
  1 16  1  0  0  0  0
  2 15  1  0  0  0  0
  2 27  1  0  0  0  0
  3 15  2  0  0  0  0
  4 10  1  0  0  0  0
  4 11  1  0  0  0  0
  4 21  1  0  0  0  0
  5  9  1  0  0  0  0
  5 25  1  0  0  0  0
  5 26  1  0  0  0  0
  6  7  1  0  0  0  0
  6  8  1  0  0  0  0
  6 11  2  0  0  0  0
  7  9  1  0  0  0  0
  7 17  1  0  0  0  0
  7 18  1  0  0  0  0
  8 10  2  0  0  0  0
  8 12  1  0  0  0  0
  9 15  1  0  0  0  0
  9 19  1  1  0  0  0
 10 13  1  0  0  0  0
 11 20  1  0  0  0  0
 12 14  2  0  0  0  0
 12 22  1  0  0  0  0
 13 16  2  0  0  0  0
 13 23  1  0  0  0  0
 14 16  1  0  0  0  0
 14 24  1  0  0  0  0
M  END
>  <PUBCHEM_COMPOUND_CID>
9856996

>  <PUBCHEM_CONFORMER_RMSD>
0.6

>  <PUBCHEM_CONFORMER_DIVERSEORDER>
1
17
15
19
6
11
14
16
5
9
12
13
18
7
3
2
4
8
10

>  <PUBCHEM_MMFF94_PARTIAL_CHARGES>
23
1 -0.11
10 -0.15
11 -0.3
12 -0.15
13 -0.15
14 -0.15
15 0.66
16 0.11
2 -0.65
20 0.15
21 0.27
22 0.15
23 0.15
24 0.15
25 0.36
26 0.36
27 0.5
3 -0.57
4 0.03
5 -0.99
6 -0.18
7 0.18
9 0.33

>  <PUBCHEM_EFFECTIVE_ROTOR_COUNT>
3

>  <PUBCHEM_PHARMACOPHORE_FEATURES>
10
1 1 hydrophobe
1 2 acceptor
1 3 acceptor
1 4 cation
1 4 donor
1 5 cation
1 5 donor
3 2 3 15 anion
5 4 6 8 10 11 rings
6 8 10 12 13 14 16 rings

>  <PUBCHEM_HEAVY_ATOM_COUNT>
16

>  <PUBCHEM_ATOM_DEF_STEREO_COUNT>
1

>  <PUBCHEM_ATOM_UDEF_STEREO_COUNT>
0

>  <PUBCHEM_BOND_DEF_STEREO_COUNT>
0

>  <PUBCHEM_BOND_UDEF_STEREO_COUNT>
0

>  <PUBCHEM_ISOTOPIC_ATOM_COUNT>
0

>  <PUBCHEM_COMPONENT_COUNT>
1

>  <PUBCHEM_CACTVS_TAUTO_COUNT>
1

>  <PUBCHEM_CONFORMER_ID>
009667E400000001

>  <PUBCHEM_MMFF94_ENERGY>
21.0466

>  <PUBCHEM_FEATURE_SELFOVERLAP>
50.894

>  <PUBCHEM_SHAPE_FINGERPRINT>
11640471 11 17897169241491425364
13380535 76 18410294670965602035
13583140 156 17168139023441679835
14252887 29 11458712659804682608
15775835 57 18333737935238967004
16945 1 18336826377533705283
17134986 127 18410578378913635645
18186145 218 18272381874989339273
20645476 183 18408879646661047803
21524375 3 18335704922923093907
22094290 62 18335420158096341074
231179 274 17968936384086486621
23175994 123 15647323110040252050
23402539 116 18059846273071424276
23419403 2 16323922076747560138
23557571 272 17488738011970372966
23559900 14 17988922289224085616
2748010 2 17262138733348140635
3060560 45 18339925896348549358
474 4 18261115136595359761
4990 188 16845568691446478597
537710 114 18271523105353703161
58051976 378 18270678667485791717
7364860 26 18127413345488937191
7832392 63 18336824281853110036
9981440 41 17542499887858668280

>  <PUBCHEM_SHAPE_MULTIPOLES>
313.51
6.75
2.25
0.97
3
0.6
-0.15
-3.7
-0.12
-0.27
-0.29
-0.29
-0.18
-0.56

>  <PUBCHEM_SHAPE_SELFOVERLAP>
660.574

>  <PUBCHEM_SHAPE_VOLUME>
181.4

>  <PUBCHEM_COORDINATE_TYPE>
2
5
10

$$$$
9856996
 OpenBabel12092211553D

 27 28  0  0  1  0  0  0  0  0999 V2000
   -4.8081    1.4276   -0.1446 Br  0  0  0  0  0  0  0  0  0  0  0  0
    2.8473   -3.2399    0.1156 O   0  0  0  0  0  0  0  0  0  0  0  0
    3.6549   -2.4759   -1.8604 O   0  0  0  0  0  0  0  0  0  0  0  0
   -0.9988   -2.3341   -0.5475 N   0  0  0  0  0  0  0  0  0  0  0  0
    2.8474    0.0670   -1.1884 N   0  0  0  0  0  0  0  0  0  0  0  0
    0.6524   -1.1965    0.4046 C   0  0  0  0  0  0  0  0  0  0  0  0
    1.9803   -0.8386    0.9432 C   0  0  0  0  0  0  0  0  0  0  0  0
   -0.5080   -0.3730    0.3963 C   0  0  0  0  0  0  0  0  0  0  0  0
    3.1217   -0.8743   -0.0994 C   0  0  1  0  0  0  0  0  0  0  0  0
   -1.5295   -1.1104   -0.2063 C   0  0  0  0  0  0  0  0  0  0  0  0
    0.3192   -2.3955   -0.1824 C   0  0  0  0  0  0  0  0  0  0  0  0
   -0.7883    0.9330    0.8448 C   0  0  0  0  0  0  0  0  0  0  0  0
   -2.8223   -0.6050   -0.3834 C   0  0  0  0  0  0  0  0  0  0  0  0
   -2.0769    1.4517    0.6742 C   0  0  0  0  0  0  0  0  0  0  0  0
    3.2378   -2.2514   -0.7311 C   0  0  0  0  0  0  0  0  0  0  0  0
   -3.0769    0.6928    0.0693 C   0  0  0  0  0  0  0  0  0  0  0  0
    2.2279   -1.5236    1.7659 H   0  0  0  0  0  0  0  0  0  0  0  0
    1.9272    0.1611    1.3964 H   0  0  0  0  0  0  0  0  0  0  0  0
    4.0803   -0.6080    0.3609 H   0  0  0  0  0  0  0  0  0  0  0  0
    0.9002   -3.2868   -0.3743 H   0  0  0  0  0  0  0  0  0  0  0  0
   -1.5092   -3.0787   -1.0019 H   0  0  0  0  0  0  0  0  0  0  0  0
   -0.0242    1.5380    1.3240 H   0  0  0  0  0  0  0  0  0  0  0  0
   -3.5919   -1.2071   -0.8564 H   0  0  0  0  0  0  0  0  0  0  0  0
   -2.2819    2.4605    1.0255 H   0  0  0  0  0  0  0  0  0  0  0  0
    3.6453    0.0972   -1.8224 H   0  0  0  0  0  0  0  0  0  0  0  0
    2.7518    1.0080   -0.8085 H   0  0  0  0  0  0  0  0  0  0  0  0
    2.9309   -4.1269   -0.2950 H   0  0  0  0  0  0  0  0  0  0  0  0
  1 16  1  0  0  0  0
  2 15  1  0  0  0  0
  2 27  1  0  0  0  0
  3 15  2  0  0  0  0
  4 10  1  0  0  0  0
  4 11  1  0  0  0  0
  4 21  1  0  0  0  0
  5  9  1  0  0  0  0
  5 25  1  0  0  0  0
  5 26  1  0  0  0  0
  6  7  1  0  0  0  0
  6  8  1  0  0  0  0
  6 11  2  0  0  0  0
  7  9  1  0  0  0  0
  7 17  1  0  0  0  0
  7 18  1  0  0  0  0
  8 10  2  0  0  0  0
  8 12  1  0  0  0  0
  9 15  1  0  0  0  0
  9 19  1  1  0  0  0
 10 13  1  0  0  0  0
 11 20  1  0  0  0  0
 12 14  2  0  0  0  0
 12 22  1  0  0  0  0
 13 16  2  0  0  0  0
 13 23  1  0  0  0  0
 14 16  1  0  0  0  0
 14 24  1  0  0  0  0
M  END
>  <PUBCHEM_COMPOUND_CID>
9856996

>  <PUBCHEM_CONFORMER_RMSD>
0.6

>  <PUBCHEM_CONFORMER_DIVERSEORDER>
1
17
15
19
6
11
14
16
5
9
12
13
18
7
3
2
4
8
10

>  <PUBCHEM_MMFF94_PARTIAL_CHARGES>
23
1 -0.11
10 -0.15
11 -0.3
12 -0.15
13 -0.15
14 -0.15
15 0.66
16 0.11
2 -0.65
20 0.15
21 0.27
22 0.15
23 0.15
24 0.15
25 0.36
26 0.36
27 0.5
3 -0.57
4 0.03
5 -0.99
6 -0.18
7 0.18
9 0.33

>  <PUBCHEM_EFFECTIVE_ROTOR_COUNT>
3

>  <PUBCHEM_PHARMACOPHORE_FEATURES>
10
1 1 hydrophobe
1 2 acceptor
1 3 acceptor
1 4 cation
1 4 donor
1 5 cation
1 5 donor
3 2 3 15 anion
5 4 6 8 10 11 rings
6 8 10 12 13 14 16 rings

>  <PUBCHEM_HEAVY_ATOM_COUNT>
16

>  <PUBCHEM_ATOM_DEF_STEREO_COUNT>
1

>  <PUBCHEM_ATOM_UDEF_STEREO_COUNT>
0

>  <PUBCHEM_BOND_DEF_STEREO_COUNT>
0

>  <PUBCHEM_BOND_UDEF_STEREO_COUNT>
0

>  <PUBCHEM_ISOTOPIC_ATOM_COUNT>
0

>  <PUBCHEM_COMPONENT_COUNT>
1

>  <PUBCHEM_CACTVS_TAUTO_COUNT>
1

>  <PUBCHEM_CONFORMER_ID>
009667E400000001

>  <PUBCHEM_MMFF94_ENERGY>
21.0466

>  <PUBCHEM_FEATURE_SELFOVERLAP>
50.894

>  <PUBCHEM_SHAPE_FINGERPRINT>
11640471 11 17897169241491425364
13380535 76 18410294670965602035
13583140 156 17168139023441679835
14252887 29 11458712659804682608
15775835 57 18333737935238967004
16945 1 18336826377533705283
17134986 127 18410578378913635645
18186145 218 18272381874989339273
20645476 183 18408879646661047803
21524375 3 18335704922923093907
22094290 62 18335420158096341074
231179 274 17968936384086486621
23175994 123 15647323110040252050
23402539 116 18059846273071424276
23419403 2 16323922076747560138
23557571 272 17488738011970372966
23559900 14 17988922289224085616
2748010 2 17262138733348140635
3060560 45 18339925896348549358
474 4 18261115136595359761
4990 188 16845568691446478597
537710 114 18271523105353703161
58051976 378 18270678667485791717
7364860 26 18127413345488937191
7832392 63 18336824281853110036
9981440 41 17542499887858668280

>  <PUBCHEM_SHAPE_MULTIPOLES>
313.51
6.75
2.25
0.97
3
0.6
-0.15
-3.7
-0.12
-0.27
-0.29
-0.29
-0.18
-0.56

>  <PUBCHEM_SHAPE_SELFOVERLAP>
660.574

>  <PUBCHEM_SHAPE_VOLUME>
181.4

>  <PUBCHEM_COORDINATE_TYPE>
2
5
10

$$$$
9856996
 OpenBabel12092211553D

 27 28  0  0  1  0  0  0  0  0999 V2000
   -4.8081    1.4276   -0.1446 Br  0  0  0  0  0  0  0  0  0  0  0  0
   -0.1372   -0.1570    3.2652 O   0  0  0  0  0  0  0  0  0  0  0  0
    1.7059   -1.0664    4.2225 O   0  0  0  0  0  0  0  0  0  0  0  0
   -0.9988   -2.3341   -0.5475 N   0  0  0  0  0  0  0  0  0  0  0  0
    3.2995    0.4510    2.5902 N   0  0  0  0  0  0  0  0  0  0  0  0
    0.6524   -1.1965    0.4046 C   0  0  0  0  0  0  0  0  0  0  0  0
    1.9803   -0.8386    0.9432 C   0  0  0  0  0  0  0  0  0  0  0  0
   -0.5080   -0.3730    0.3963 C   0  0  0  0  0  0  0  0  0  0  0  0
    1.9412    0.1573    2.1255 C   0  0  1  0  0  0  0  0  0  0  0  0
   -1.5295   -1.1104   -0.2063 C   0  0  0  0  0  0  0  0  0  0  0  0
    0.3192   -2.3955   -0.1824 C   0  0  0  0  0  0  0  0  0  0  0  0
   -0.7883    0.9330    0.8448 C   0  0  0  0  0  0  0  0  0  0  0  0
   -2.8223   -0.6050   -0.3834 C   0  0  0  0  0  0  0  0  0  0  0  0
   -2.0769    1.4517    0.6742 C   0  0  0  0  0  0  0  0  0  0  0  0
    1.1926   -0.4330    3.3087 C   0  0  0  0  0  0  0  0  0  0  0  0
   -3.0769    0.6928    0.0693 C   0  0  0  0  0  0  0  0  0  0  0  0
    2.5887   -0.4088    0.1354 H   0  0  0  0  0  0  0  0  0  0  0  0
    2.5025   -1.7551    1.2514 H   0  0  0  0  0  0  0  0  0  0  0  0
    1.4612    1.0973    1.8292 H   0  0  0  0  0  0  0  0  0  0  0  0
    0.9002   -3.2868   -0.3743 H   0  0  0  0  0  0  0  0  0  0  0  0
   -1.5092   -3.0787   -1.0019 H   0  0  0  0  0  0  0  0  0  0  0  0
   -0.0242    1.5380    1.3240 H   0  0  0  0  0  0  0  0  0  0  0  0
   -3.5919   -1.2071   -0.8564 H   0  0  0  0  0  0  0  0  0  0  0  0
   -2.2819    2.4605    1.0255 H   0  0  0  0  0  0  0  0  0  0  0  0
    3.2654    1.1722    3.3100 H   0  0  0  0  0  0  0  0  0  0  0  0
    3.8443    0.8424    1.8227 H   0  0  0  0  0  0  0  0  0  0  0  0
   -0.6141   -0.5345    4.0348 H   0  0  0  0  0  0  0  0  0  0  0  0
  1 16  1  0  0  0  0
  2 15  1  0  0  0  0
  2 27  1  0  0  0  0
  3 15  2  0  0  0  0
  4 10  1  0  0  0  0
  4 11  1  0  0  0  0
  4 21  1  0  0  0  0
  5  9  1  0  0  0  0
  5 25  1  0  0  0  0
  5 26  1  0  0  0  0
  6  7  1  0  0  0  0
  6  8  1  0  0  0  0
  6 11  2  0  0  0  0
  7  9  1  0  0  0  0
  7 17  1  0  0  0  0
  7 18  1  0  0  0  0
  8 10  2  0  0  0  0
  8 12  1  0  0  0  0
  9 15  1  0  0  0  0
  9 19  1  6  0  0  0
 10 13  1  0  0  0  0
 11 20  1  0  0  0  0
 12 14  2  0  0  0  0
 12 22  1  0  0  0  0
 13 16  2  0  0  0  0
 13 23  1  0  0  0  0
 14 16  1  0  0  0  0
 14 24  1  0  0  0  0
M  END
>  <PUBCHEM_COMPOUND_CID>
9856996

>  <PUBCHEM_CONFORMER_RMSD>
0.6

>  <PUBCHEM_CONFORMER_DIVERSEORDER>
1
17
15
19
6
11
14
16
5
9
12
13
18
7
3
2
4
8
10

>  <PUBCHEM_MMFF94_PARTIAL_CHARGES>
23
1 -0.11
10 -0.15
11 -0.3
12 -0.15
13 -0.15
14 -0.15
15 0.66
16 0.11
2 -0.65
20 0.15
21 0.27
22 0.15
23 0.15
24 0.15
25 0.36
26 0.36
27 0.5
3 -0.57
4 0.03
5 -0.99
6 -0.18
7 0.18
9 0.33

>  <PUBCHEM_EFFECTIVE_ROTOR_COUNT>
3

>  <PUBCHEM_PHARMACOPHORE_FEATURES>
10
1 1 hydrophobe
1 2 acceptor
1 3 acceptor
1 4 cation
1 4 donor
1 5 cation
1 5 donor
3 2 3 15 anion
5 4 6 8 10 11 rings
6 8 10 12 13 14 16 rings

>  <PUBCHEM_HEAVY_ATOM_COUNT>
16

>  <PUBCHEM_ATOM_DEF_STEREO_COUNT>
1

>  <PUBCHEM_ATOM_UDEF_STEREO_COUNT>
0

>  <PUBCHEM_BOND_DEF_STEREO_COUNT>
0

>  <PUBCHEM_BOND_UDEF_STEREO_COUNT>
0

>  <PUBCHEM_ISOTOPIC_ATOM_COUNT>
0

>  <PUBCHEM_COMPONENT_COUNT>
1

>  <PUBCHEM_CACTVS_TAUTO_COUNT>
1

>  <PUBCHEM_CONFORMER_ID>
009667E400000001

>  <PUBCHEM_MMFF94_ENERGY>
21.0466

>  <PUBCHEM_FEATURE_SELFOVERLAP>
50.894

>  <PUBCHEM_SHAPE_FINGERPRINT>
11640471 11 17897169241491425364
13380535 76 18410294670965602035
13583140 156 17168139023441679835
14252887 29 11458712659804682608
15775835 57 18333737935238967004
16945 1 18336826377533705283
17134986 127 18410578378913635645
18186145 218 18272381874989339273
20645476 183 18408879646661047803
21524375 3 18335704922923093907
22094290 62 18335420158096341074
231179 274 17968936384086486621
23175994 123 15647323110040252050
23402539 116 18059846273071424276
23419403 2 16323922076747560138
23557571 272 17488738011970372966
23559900 14 17988922289224085616
2748010 2 17262138733348140635
3060560 45 18339925896348549358
474 4 18261115136595359761
4990 188 16845568691446478597
537710 114 18271523105353703161
58051976 378 18270678667485791717
7364860 26 18127413345488937191
7832392 63 18336824281853110036
9981440 41 17542499887858668280

>  <PUBCHEM_SHAPE_MULTIPOLES>
313.51
6.75
2.25
0.97
3
0.6
-0.15
-3.7
-0.12
-0.27
-0.29
-0.29
-0.18
-0.56

>  <PUBCHEM_SHAPE_SELFOVERLAP>
660.574

>  <PUBCHEM_SHAPE_VOLUME>
181.4

>  <PUBCHEM_COORDINATE_TYPE>
2
5
10

$$$$
9856996
 OpenBabel12092211553D

 27 28  0  0  1  0  0  0  0  0999 V2000
   -4.8081    1.4276   -0.1446 Br  0  0  0  0  0  0  0  0  0  0  0  0
    2.4749   -3.2621   -1.1117 O   0  0  0  0  0  0  0  0  0  0  0  0
    4.1565   -1.7613   -1.3577 O   0  0  0  0  0  0  0  0  0  0  0  0
   -0.9988   -2.3341   -0.5475 N   0  0  0  0  0  0  0  0  0  0  0  0
    4.3239   -1.5061    1.3651 N   0  0  0  0  0  0  0  0  0  0  0  0
    0.6524   -1.1965    0.4046 C   0  0  0  0  0  0  0  0  0  0  0  0
    1.9803   -0.8386    0.9432 C   0  0  0  0  0  0  0  0  0  0  0  0
   -0.5080   -0.3730    0.3963 C   0  0  0  0  0  0  0  0  0  0  0  0
    3.0450   -1.9515    0.8054 C   0  0  1  0  0  0  0  0  0  0  0  0
   -1.5295   -1.1104   -0.2063 C   0  0  0  0  0  0  0  0  0  0  0  0
    0.3192   -2.3955   -0.1824 C   0  0  0  0  0  0  0  0  0  0  0  0
   -0.7883    0.9330    0.8448 C   0  0  0  0  0  0  0  0  0  0  0  0
   -2.8223   -0.6050   -0.3834 C   0  0  0  0  0  0  0  0  0  0  0  0
   -2.0769    1.4517    0.6742 C   0  0  0  0  0  0  0  0  0  0  0  0
    3.2991   -2.2826   -0.6557 C   0  0  0  0  0  0  0  0  0  0  0  0
   -3.0769    0.6928    0.0693 C   0  0  0  0  0  0  0  0  0  0  0  0
    1.8754   -0.5755    2.0049 H   0  0  0  0  0  0  0  0  0  0  0  0
    2.3361    0.0745    0.4459 H   0  0  0  0  0  0  0  0  0  0  0  0
    2.7303   -2.8609    1.3306 H   0  0  0  0  0  0  0  0  0  0  0  0
    0.9002   -3.2868   -0.3743 H   0  0  0  0  0  0  0  0  0  0  0  0
   -1.5092   -3.0787   -1.0019 H   0  0  0  0  0  0  0  0  0  0  0  0
   -0.0242    1.5380    1.3240 H   0  0  0  0  0  0  0  0  0  0  0  0
   -3.5919   -1.2071   -0.8564 H   0  0  0  0  0  0  0  0  0  0  0  0
   -2.2819    2.4605    1.0255 H   0  0  0  0  0  0  0  0  0  0  0  0
    4.9912   -2.2767    1.3468 H   0  0  0  0  0  0  0  0  0  0  0  0
    4.1990   -1.2629    2.3471 H   0  0  0  0  0  0  0  0  0  0  0  0
    2.6481   -3.4764   -2.0531 H   0  0  0  0  0  0  0  0  0  0  0  0
  1 16  1  0  0  0  0
  2 15  1  0  0  0  0
  2 27  1  0  0  0  0
  3 15  2  0  0  0  0
  4 10  1  0  0  0  0
  4 11  1  0  0  0  0
  4 21  1  0  0  0  0
  5  9  1  0  0  0  0
  5 25  1  0  0  0  0
  5 26  1  0  0  0  0
  6  7  1  0  0  0  0
  6  8  1  0  0  0  0
  6 11  2  0  0  0  0
  7  9  1  0  0  0  0
  7 17  1  0  0  0  0
  7 18  1  0  0  0  0
  8 10  2  0  0  0  0
  8 12  1  0  0  0  0
  9 15  1  0  0  0  0
  9 19  1  1  0  0  0
 10 13  1  0  0  0  0
 11 20  1  0  0  0  0
 12 14  2  0  0  0  0
 12 22  1  0  0  0  0
 13 16  2  0  0  0  0
 13 23  1  0  0  0  0
 14 16  1  0  0  0  0
 14 24  1  0  0  0  0
M  END
>  <PUBCHEM_COMPOUND_CID>
9856996

>  <PUBCHEM_CONFORMER_RMSD>
0.6

>  <PUBCHEM_CONFORMER_DIVERSEORDER>
1
17
15
19
6
11
14
16
5
9
12
13
18
7
3
2
4
8
10

>  <PUBCHEM_MMFF94_PARTIAL_CHARGES>
23
1 -0.11
10 -0.15
11 -0.3
12 -0.15
13 -0.15
14 -0.15
15 0.66
16 0.11
2 -0.65
20 0.15
21 0.27
22 0.15
23 0.15
24 0.15
25 0.36
26 0.36
27 0.5
3 -0.57
4 0.03
5 -0.99
6 -0.18
7 0.18
9 0.33

>  <PUBCHEM_EFFECTIVE_ROTOR_COUNT>
3

>  <PUBCHEM_PHARMACOPHORE_FEATURES>
10
1 1 hydrophobe
1 2 acceptor
1 3 acceptor
1 4 cation
1 4 donor
1 5 cation
1 5 donor
3 2 3 15 anion
5 4 6 8 10 11 rings
6 8 10 12 13 14 16 rings

>  <PUBCHEM_HEAVY_ATOM_COUNT>
16

>  <PUBCHEM_ATOM_DEF_STEREO_COUNT>
1

>  <PUBCHEM_ATOM_UDEF_STEREO_COUNT>
0

>  <PUBCHEM_BOND_DEF_STEREO_COUNT>
0

>  <PUBCHEM_BOND_UDEF_STEREO_COUNT>
0

>  <PUBCHEM_ISOTOPIC_ATOM_COUNT>
0

>  <PUBCHEM_COMPONENT_COUNT>
1

>  <PUBCHEM_CACTVS_TAUTO_COUNT>
1

>  <PUBCHEM_CONFORMER_ID>
009667E400000001

>  <PUBCHEM_MMFF94_ENERGY>
21.0466

>  <PUBCHEM_FEATURE_SELFOVERLAP>
50.894

>  <PUBCHEM_SHAPE_FINGERPRINT>
11640471 11 17897169241491425364
13380535 76 18410294670965602035
13583140 156 17168139023441679835
14252887 29 11458712659804682608
15775835 57 18333737935238967004
16945 1 18336826377533705283
17134986 127 18410578378913635645
18186145 218 18272381874989339273
20645476 183 18408879646661047803
21524375 3 18335704922923093907
22094290 62 18335420158096341074
231179 274 17968936384086486621
23175994 123 15647323110040252050
23402539 116 18059846273071424276
23419403 2 16323922076747560138
23557571 272 17488738011970372966
23559900 14 17988922289224085616
2748010 2 17262138733348140635
3060560 45 18339925896348549358
474 4 18261115136595359761
4990 188 16845568691446478597
537710 114 18271523105353703161
58051976 378 18270678667485791717
7364860 26 18127413345488937191
7832392 63 18336824281853110036
9981440 41 17542499887858668280

>  <PUBCHEM_SHAPE_MULTIPOLES>
313.51
6.75
2.25
0.97
3
0.6
-0.15
-3.7
-0.12
-0.27
-0.29
-0.29
-0.18
-0.56

>  <PUBCHEM_SHAPE_SELFOVERLAP>
660.574

>  <PUBCHEM_SHAPE_VOLUME>
181.4

>  <PUBCHEM_COORDINATE_TYPE>
2
5
10

$$$$
9856996
 OpenBabel12092211553D

 27 28  0  0  1  0  0  0  0  0999 V2000
   -4.8081    1.4276   -0.1446 Br  0  0  0  0  0  0  0  0  0  0  0  0
    4.0818    0.2376   -1.6229 O   0  0  0  0  0  0  0  0  0  0  0  0
    1.8611   -0.0067   -2.0096 O   0  0  0  0  0  0  0  0  0  0  0  0
   -0.9988   -2.3341   -0.5475 N   0  0  0  0  0  0  0  0  0  0  0  0
    1.7802    1.5746    0.4409 N   0  0  0  0  0  0  0  0  0  0  0  0
    0.6524   -1.1965    0.4046 C   0  0  0  0  0  0  0  0  0  0  0  0
    1.9803   -0.8386    0.9432 C   0  0  0  0  0  0  0  0  0  0  0  0
   -0.5080   -0.3730    0.3963 C   0  0  0  0  0  0  0  0  0  0  0  0
    2.6299    0.3930    0.2707 C   0  0  1  0  0  0  0  0  0  0  0  0
   -1.5295   -1.1104   -0.2063 C   0  0  0  0  0  0  0  0  0  0  0  0
    0.3192   -2.3955   -0.1824 C   0  0  0  0  0  0  0  0  0  0  0  0
   -0.7883    0.9330    0.8448 C   0  0  0  0  0  0  0  0  0  0  0  0
   -2.8223   -0.6050   -0.3834 C   0  0  0  0  0  0  0  0  0  0  0  0
   -2.0769    1.4517    0.6742 C   0  0  0  0  0  0  0  0  0  0  0  0
    2.7837    0.1772   -1.2255 C   0  0  0  0  0  0  0  0  0  0  0  0
   -3.0769    0.6928    0.0693 C   0  0  0  0  0  0  0  0  0  0  0  0
    2.6534   -1.7003    0.8343 H   0  0  0  0  0  0  0  0  0  0  0  0
    1.8949   -0.6648    2.0249 H   0  0  0  0  0  0  0  0  0  0  0  0
    3.6137    0.6031    0.7066 H   0  0  0  0  0  0  0  0  0  0  0  0
    0.9002   -3.2868   -0.3743 H   0  0  0  0  0  0  0  0  0  0  0  0
   -1.5092   -3.0787   -1.0019 H   0  0  0  0  0  0  0  0  0  0  0  0
   -0.0242    1.5380    1.3240 H   0  0  0  0  0  0  0  0  0  0  0  0
   -3.5919   -1.2071   -0.8564 H   0  0  0  0  0  0  0  0  0  0  0  0
   -2.2819    2.4605    1.0255 H   0  0  0  0  0  0  0  0  0  0  0  0
    2.2584    2.3951    0.0700 H   0  0  0  0  0  0  0  0  0  0  0  0
    1.6411    1.7531    1.4348 H   0  0  0  0  0  0  0  0  0  0  0  0
    4.1742    0.1046   -2.5903 H   0  0  0  0  0  0  0  0  0  0  0  0
  1 16  1  0  0  0  0
  2 15  1  0  0  0  0
  2 27  1  0  0  0  0
  3 15  2  0  0  0  0
  4 10  1  0  0  0  0
  4 11  1  0  0  0  0
  4 21  1  0  0  0  0
  5  9  1  0  0  0  0
  5 25  1  0  0  0  0
  5 26  1  0  0  0  0
  6  7  1  0  0  0  0
  6  8  1  0  0  0  0
  6 11  2  0  0  0  0
  7  9  1  0  0  0  0
  7 17  1  0  0  0  0
  7 18  1  0  0  0  0
  8 10  2  0  0  0  0
  8 12  1  0  0  0  0
  9 15  1  0  0  0  0
  9 19  1  1  0  0  0
 10 13  1  0  0  0  0
 11 20  1  0  0  0  0
 12 14  2  0  0  0  0
 12 22  1  0  0  0  0
 13 16  2  0  0  0  0
 13 23  1  0  0  0  0
 14 16  1  0  0  0  0
 14 24  1  0  0  0  0
M  END
>  <PUBCHEM_COMPOUND_CID>
9856996

>  <PUBCHEM_CONFORMER_RMSD>
0.6

>  <PUBCHEM_CONFORMER_DIVERSEORDER>
1
17
15
19
6
11
14
16
5
9
12
13
18
7
3
2
4
8
10

>  <PUBCHEM_MMFF94_PARTIAL_CHARGES>
23
1 -0.11
10 -0.15
11 -0.3
12 -0.15
13 -0.15
14 -0.15
15 0.66
16 0.11
2 -0.65
20 0.15
21 0.27
22 0.15
23 0.15
24 0.15
25 0.36
26 0.36
27 0.5
3 -0.57
4 0.03
5 -0.99
6 -0.18
7 0.18
9 0.33

>  <PUBCHEM_EFFECTIVE_ROTOR_COUNT>
3

>  <PUBCHEM_PHARMACOPHORE_FEATURES>
10
1 1 hydrophobe
1 2 acceptor
1 3 acceptor
1 4 cation
1 4 donor
1 5 cation
1 5 donor
3 2 3 15 anion
5 4 6 8 10 11 rings
6 8 10 12 13 14 16 rings

>  <PUBCHEM_HEAVY_ATOM_COUNT>
16

>  <PUBCHEM_ATOM_DEF_STEREO_COUNT>
1

>  <PUBCHEM_ATOM_UDEF_STEREO_COUNT>
0

>  <PUBCHEM_BOND_DEF_STEREO_COUNT>
0

>  <PUBCHEM_BOND_UDEF_STEREO_COUNT>
0

>  <PUBCHEM_ISOTOPIC_ATOM_COUNT>
0

>  <PUBCHEM_COMPONENT_COUNT>
1

>  <PUBCHEM_CACTVS_TAUTO_COUNT>
1

>  <PUBCHEM_CONFORMER_ID>
009667E400000001

>  <PUBCHEM_MMFF94_ENERGY>
21.0466

>  <PUBCHEM_FEATURE_SELFOVERLAP>
50.894

>  <PUBCHEM_SHAPE_FINGERPRINT>
11640471 11 17897169241491425364
13380535 76 18410294670965602035
13583140 156 17168139023441679835
14252887 29 11458712659804682608
15775835 57 18333737935238967004
16945 1 18336826377533705283
17134986 127 18410578378913635645
18186145 218 18272381874989339273
20645476 183 18408879646661047803
21524375 3 18335704922923093907
22094290 62 18335420158096341074
231179 274 17968936384086486621
23175994 123 15647323110040252050
23402539 116 18059846273071424276
23419403 2 16323922076747560138
23557571 272 17488738011970372966
23559900 14 17988922289224085616
2748010 2 17262138733348140635
3060560 45 18339925896348549358
474 4 18261115136595359761
4990 188 16845568691446478597
537710 114 18271523105353703161
58051976 378 18270678667485791717
7364860 26 18127413345488937191
7832392 63 18336824281853110036
9981440 41 17542499887858668280

>  <PUBCHEM_SHAPE_MULTIPOLES>
313.51
6.75
2.25
0.97
3
0.6
-0.15
-3.7
-0.12
-0.27
-0.29
-0.29
-0.18
-0.56

>  <PUBCHEM_SHAPE_SELFOVERLAP>
660.574

>  <PUBCHEM_SHAPE_VOLUME>
181.4

>  <PUBCHEM_COORDINATE_TYPE>
2
5
10

$$$$
9856996
 OpenBabel12092211553D

 27 28  0  0  1  0  0  0  0  0999 V2000
   -4.8081    1.4276   -0.1446 Br  0  0  0  0  0  0  0  0  0  0  0  0
    3.3404    0.7883    3.9459 O   0  0  0  0  0  0  0  0  0  0  0  0
    4.4239   -0.4833    2.4131 O   0  0  0  0  0  0  0  0  0  0  0  0
   -0.9988   -2.3341   -0.5475 N   0  0  0  0  0  0  0  0  0  0  0  0
    1.1072    0.6492    2.7152 N   0  0  0  0  0  0  0  0  0  0  0  0
    0.6524   -1.1965    0.4046 C   0  0  0  0  0  0  0  0  0  0  0  0
    1.9803   -0.8386    0.9432 C   0  0  0  0  0  0  0  0  0  0  0  0
   -0.5080   -0.3730    0.3963 C   0  0  0  0  0  0  0  0  0  0  0  0
    1.9848   -0.4940    2.4506 C   0  0  1  0  0  0  0  0  0  0  0  0
   -1.5295   -1.1104   -0.2063 C   0  0  0  0  0  0  0  0  0  0  0  0
    0.3192   -2.3955   -0.1824 C   0  0  0  0  0  0  0  0  0  0  0  0
   -0.7883    0.9330    0.8448 C   0  0  0  0  0  0  0  0  0  0  0  0
   -2.8223   -0.6050   -0.3834 C   0  0  0  0  0  0  0  0  0  0  0  0
   -2.0769    1.4517    0.6742 C   0  0  0  0  0  0  0  0  0  0  0  0
    3.3759   -0.0930    2.9122 C   0  0  0  0  0  0  0  0  0  0  0  0
   -3.0769    0.6928    0.0693 C   0  0  0  0  0  0  0  0  0  0  0  0
    2.3739    0.0192    0.3806 H   0  0  0  0  0  0  0  0  0  0  0  0
    2.6803   -1.6639    0.7524 H   0  0  0  0  0  0  0  0  0  0  0  0
    1.6398   -1.3463    3.0476 H   0  0  0  0  0  0  0  0  0  0  0  0
    0.9002   -3.2868   -0.3743 H   0  0  0  0  0  0  0  0  0  0  0  0
   -1.5092   -3.0787   -1.0019 H   0  0  0  0  0  0  0  0  0  0  0  0
   -0.0242    1.5380    1.3240 H   0  0  0  0  0  0  0  0  0  0  0  0
   -3.5919   -1.2071   -0.8564 H   0  0  0  0  0  0  0  0  0  0  0  0
   -2.2819    2.4605    1.0255 H   0  0  0  0  0  0  0  0  0  0  0  0
    1.0515    0.8112    3.7203 H   0  0  0  0  0  0  0  0  0  0  0  0
    0.1597    0.4280    2.4111 H   0  0  0  0  0  0  0  0  0  0  0  0
    4.2408    1.0488    4.2351 H   0  0  0  0  0  0  0  0  0  0  0  0
  1 16  1  0  0  0  0
  2 15  1  0  0  0  0
  2 27  1  0  0  0  0
  3 15  2  0  0  0  0
  4 10  1  0  0  0  0
  4 11  1  0  0  0  0
  4 21  1  0  0  0  0
  5  9  1  0  0  0  0
  5 25  1  0  0  0  0
  5 26  1  0  0  0  0
  6  7  1  0  0  0  0
  6  8  1  0  0  0  0
  6 11  2  0  0  0  0
  7  9  1  0  0  0  0
  7 17  1  0  0  0  0
  7 18  1  0  0  0  0
  8 10  2  0  0  0  0
  8 12  1  0  0  0  0
  9 15  1  0  0  0  0
  9 19  1  1  0  0  0
 10 13  1  0  0  0  0
 11 20  1  0  0  0  0
 12 14  2  0  0  0  0
 12 22  1  0  0  0  0
 13 16  2  0  0  0  0
 13 23  1  0  0  0  0
 14 16  1  0  0  0  0
 14 24  1  0  0  0  0
M  END
>  <PUBCHEM_COMPOUND_CID>
9856996

>  <PUBCHEM_CONFORMER_RMSD>
0.6

>  <PUBCHEM_CONFORMER_DIVERSEORDER>
1
17
15
19
6
11
14
16
5
9
12
13
18
7
3
2
4
8
10

>  <PUBCHEM_MMFF94_PARTIAL_CHARGES>
23
1 -0.11
10 -0.15
11 -0.3
12 -0.15
13 -0.15
14 -0.15
15 0.66
16 0.11
2 -0.65
20 0.15
21 0.27
22 0.15
23 0.15
24 0.15
25 0.36
26 0.36
27 0.5
3 -0.57
4 0.03
5 -0.99
6 -0.18
7 0.18
9 0.33

>  <PUBCHEM_EFFECTIVE_ROTOR_COUNT>
3

>  <PUBCHEM_PHARMACOPHORE_FEATURES>
10
1 1 hydrophobe
1 2 acceptor
1 3 acceptor
1 4 cation
1 4 donor
1 5 cation
1 5 donor
3 2 3 15 anion
5 4 6 8 10 11 rings
6 8 10 12 13 14 16 rings

>  <PUBCHEM_HEAVY_ATOM_COUNT>
16

>  <PUBCHEM_ATOM_DEF_STEREO_COUNT>
1

>  <PUBCHEM_ATOM_UDEF_STEREO_COUNT>
0

>  <PUBCHEM_BOND_DEF_STEREO_COUNT>
0

>  <PUBCHEM_BOND_UDEF_STEREO_COUNT>
0

>  <PUBCHEM_ISOTOPIC_ATOM_COUNT>
0

>  <PUBCHEM_COMPONENT_COUNT>
1

>  <PUBCHEM_CACTVS_TAUTO_COUNT>
1

>  <PUBCHEM_CONFORMER_ID>
009667E400000001

>  <PUBCHEM_MMFF94_ENERGY>
21.0466

>  <PUBCHEM_FEATURE_SELFOVERLAP>
50.894

>  <PUBCHEM_SHAPE_FINGERPRINT>
11640471 11 17897169241491425364
13380535 76 18410294670965602035
13583140 156 17168139023441679835
14252887 29 11458712659804682608
15775835 57 18333737935238967004
16945 1 18336826377533705283
17134986 127 18410578378913635645
18186145 218 18272381874989339273
20645476 183 18408879646661047803
21524375 3 18335704922923093907
22094290 62 18335420158096341074
231179 274 17968936384086486621
23175994 123 15647323110040252050
23402539 116 18059846273071424276
23419403 2 16323922076747560138
23557571 272 17488738011970372966
23559900 14 17988922289224085616
2748010 2 17262138733348140635
3060560 45 18339925896348549358
474 4 18261115136595359761
4990 188 16845568691446478597
537710 114 18271523105353703161
58051976 378 18270678667485791717
7364860 26 18127413345488937191
7832392 63 18336824281853110036
9981440 41 17542499887858668280

>  <PUBCHEM_SHAPE_MULTIPOLES>
313.51
6.75
2.25
0.97
3
0.6
-0.15
-3.7
-0.12
-0.27
-0.29
-0.29
-0.18
-0.56

>  <PUBCHEM_SHAPE_SELFOVERLAP>
660.574

>  <PUBCHEM_SHAPE_VOLUME>
181.4

>  <PUBCHEM_COORDINATE_TYPE>
2
5
10

$$$$
9856996
 OpenBabel12092211553D

 27 28  0  0  1  0  0  0  0  0999 V2000
   -4.8081    1.4276   -0.1446 Br  0  0  0  0  0  0  0  0  0  0  0  0
    4.0952    0.4987    1.9228 O   0  0  0  0  0  0  0  0  0  0  0  0
    3.8311   -0.2903    4.0319 O   0  0  0  0  0  0  0  0  0  0  0  0
   -0.9988   -2.3341   -0.5475 N   0  0  0  0  0  0  0  0  0  0  0  0
    1.1072    0.6492    2.7152 N   0  0  0  0  0  0  0  0  0  0  0  0
    0.6524   -1.1965    0.4046 C   0  0  0  0  0  0  0  0  0  0  0  0
    1.9803   -0.8386    0.9432 C   0  0  0  0  0  0  0  0  0  0  0  0
   -0.5080   -0.3730    0.3963 C   0  0  0  0  0  0  0  0  0  0  0  0
    1.9848   -0.4940    2.4506 C   0  0  1  0  0  0  0  0  0  0  0  0
   -1.5295   -1.1104   -0.2063 C   0  0  0  0  0  0  0  0  0  0  0  0
    0.3192   -2.3955   -0.1824 C   0  0  0  0  0  0  0  0  0  0  0  0
   -0.7883    0.9330    0.8448 C   0  0  0  0  0  0  0  0  0  0  0  0
   -2.8223   -0.6050   -0.3834 C   0  0  0  0  0  0  0  0  0  0  0  0
   -2.0769    1.4517    0.6742 C   0  0  0  0  0  0  0  0  0  0  0  0
    3.3759   -0.0930    2.9122 C   0  0  0  0  0  0  0  0  0  0  0  0
   -3.0769    0.6928    0.0693 C   0  0  0  0  0  0  0  0  0  0  0  0
    2.3739    0.0192    0.3806 H   0  0  0  0  0  0  0  0  0  0  0  0
    2.6803   -1.6639    0.7524 H   0  0  0  0  0  0  0  0  0  0  0  0
    1.6398   -1.3463    3.0476 H   0  0  0  0  0  0  0  0  0  0  0  0
    0.9002   -3.2868   -0.3743 H   0  0  0  0  0  0  0  0  0  0  0  0
   -1.5092   -3.0787   -1.0019 H   0  0  0  0  0  0  0  0  0  0  0  0
   -0.0242    1.5380    1.3240 H   0  0  0  0  0  0  0  0  0  0  0  0
   -3.5919   -1.2071   -0.8564 H   0  0  0  0  0  0  0  0  0  0  0  0
   -2.2819    2.4605    1.0255 H   0  0  0  0  0  0  0  0  0  0  0  0
    1.0515    0.8112    3.7203 H   0  0  0  0  0  0  0  0  0  0  0  0
    0.1597    0.4280    2.4111 H   0  0  0  0  0  0  0  0  0  0  0  0
    4.9943    0.7491    2.2245 H   0  0  0  0  0  0  0  0  0  0  0  0
  1 16  1  0  0  0  0
  2 15  1  0  0  0  0
  2 27  1  0  0  0  0
  3 15  2  0  0  0  0
  4 10  1  0  0  0  0
  4 11  1  0  0  0  0
  4 21  1  0  0  0  0
  5  9  1  0  0  0  0
  5 25  1  0  0  0  0
  5 26  1  0  0  0  0
  6  7  1  0  0  0  0
  6  8  1  0  0  0  0
  6 11  2  0  0  0  0
  7  9  1  0  0  0  0
  7 17  1  0  0  0  0
  7 18  1  0  0  0  0
  8 10  2  0  0  0  0
  8 12  1  0  0  0  0
  9 15  1  0  0  0  0
  9 19  1  1  0  0  0
 10 13  1  0  0  0  0
 11 20  1  0  0  0  0
 12 14  2  0  0  0  0
 12 22  1  0  0  0  0
 13 16  2  0  0  0  0
 13 23  1  0  0  0  0
 14 16  1  0  0  0  0
 14 24  1  0  0  0  0
M  END
>  <PUBCHEM_COMPOUND_CID>
9856996

>  <PUBCHEM_CONFORMER_RMSD>
0.6

>  <PUBCHEM_CONFORMER_DIVERSEORDER>
1
17
15
19
6
11
14
16
5
9
12
13
18
7
3
2
4
8
10

>  <PUBCHEM_MMFF94_PARTIAL_CHARGES>
23
1 -0.11
10 -0.15
11 -0.3
12 -0.15
13 -0.15
14 -0.15
15 0.66
16 0.11
2 -0.65
20 0.15
21 0.27
22 0.15
23 0.15
24 0.15
25 0.36
26 0.36
27 0.5
3 -0.57
4 0.03
5 -0.99
6 -0.18
7 0.18
9 0.33

>  <PUBCHEM_EFFECTIVE_ROTOR_COUNT>
3

>  <PUBCHEM_PHARMACOPHORE_FEATURES>
10
1 1 hydrophobe
1 2 acceptor
1 3 acceptor
1 4 cation
1 4 donor
1 5 cation
1 5 donor
3 2 3 15 anion
5 4 6 8 10 11 rings
6 8 10 12 13 14 16 rings

>  <PUBCHEM_HEAVY_ATOM_COUNT>
16

>  <PUBCHEM_ATOM_DEF_STEREO_COUNT>
1

>  <PUBCHEM_ATOM_UDEF_STEREO_COUNT>
0

>  <PUBCHEM_BOND_DEF_STEREO_COUNT>
0

>  <PUBCHEM_BOND_UDEF_STEREO_COUNT>
0

>  <PUBCHEM_ISOTOPIC_ATOM_COUNT>
0

>  <PUBCHEM_COMPONENT_COUNT>
1

>  <PUBCHEM_CACTVS_TAUTO_COUNT>
1

>  <PUBCHEM_CONFORMER_ID>
009667E400000001

>  <PUBCHEM_MMFF94_ENERGY>
21.0466

>  <PUBCHEM_FEATURE_SELFOVERLAP>
50.894

>  <PUBCHEM_SHAPE_FINGERPRINT>
11640471 11 17897169241491425364
13380535 76 18410294670965602035
13583140 156 17168139023441679835
14252887 29 11458712659804682608
15775835 57 18333737935238967004
16945 1 18336826377533705283
17134986 127 18410578378913635645
18186145 218 18272381874989339273
20645476 183 18408879646661047803
21524375 3 18335704922923093907
22094290 62 18335420158096341074
231179 274 17968936384086486621
23175994 123 15647323110040252050
23402539 116 18059846273071424276
23419403 2 16323922076747560138
23557571 272 17488738011970372966
23559900 14 17988922289224085616
2748010 2 17262138733348140635
3060560 45 18339925896348549358
474 4 18261115136595359761
4990 188 16845568691446478597
537710 114 18271523105353703161
58051976 378 18270678667485791717
7364860 26 18127413345488937191
7832392 63 18336824281853110036
9981440 41 17542499887858668280

>  <PUBCHEM_SHAPE_MULTIPOLES>
313.51
6.75
2.25
0.97
3
0.6
-0.15
-3.7
-0.12
-0.27
-0.29
-0.29
-0.18
-0.56

>  <PUBCHEM_SHAPE_SELFOVERLAP>
660.574

>  <PUBCHEM_SHAPE_VOLUME>
181.4

>  <PUBCHEM_COORDINATE_TYPE>
2
5
10

$$$$
9856996
 OpenBabel12092211553D

 27 28  0  0  1  0  0  0  0  0999 V2000
   -4.8081    1.4276   -0.1446 Br  0  0  0  0  0  0  0  0  0  0  0  0
    1.8146   -0.6302   -1.7307 O   0  0  0  0  0  0  0  0  0  0  0  0
    3.6809    0.6437   -1.9163 O   0  0  0  0  0  0  0  0  0  0  0  0
   -0.9988   -2.3341   -0.5475 N   0  0  0  0  0  0  0  0  0  0  0  0
    1.7802    1.5746    0.4409 N   0  0  0  0  0  0  0  0  0  0  0  0
    0.6524   -1.1965    0.4046 C   0  0  0  0  0  0  0  0  0  0  0  0
    1.9803   -0.8386    0.9432 C   0  0  0  0  0  0  0  0  0  0  0  0
   -0.5080   -0.3730    0.3963 C   0  0  0  0  0  0  0  0  0  0  0  0
    2.6299    0.3930    0.2707 C   0  0  1  0  0  0  0  0  0  0  0  0
   -1.5295   -1.1104   -0.2063 C   0  0  0  0  0  0  0  0  0  0  0  0
    0.3192   -2.3955   -0.1824 C   0  0  0  0  0  0  0  0  0  0  0  0
   -0.7883    0.9330    0.8448 C   0  0  0  0  0  0  0  0  0  0  0  0
   -2.8223   -0.6050   -0.3834 C   0  0  0  0  0  0  0  0  0  0  0  0
   -2.0769    1.4517    0.6742 C   0  0  0  0  0  0  0  0  0  0  0  0
    2.7837    0.1772   -1.2255 C   0  0  0  0  0  0  0  0  0  0  0  0
   -3.0769    0.6928    0.0693 C   0  0  0  0  0  0  0  0  0  0  0  0
    2.6534   -1.7003    0.8343 H   0  0  0  0  0  0  0  0  0  0  0  0
    1.8949   -0.6648    2.0249 H   0  0  0  0  0  0  0  0  0  0  0  0
    3.6137    0.6031    0.7066 H   0  0  0  0  0  0  0  0  0  0  0  0
    0.9002   -3.2868   -0.3743 H   0  0  0  0  0  0  0  0  0  0  0  0
   -1.5092   -3.0787   -1.0019 H   0  0  0  0  0  0  0  0  0  0  0  0
   -0.0242    1.5380    1.3240 H   0  0  0  0  0  0  0  0  0  0  0  0
   -3.5919   -1.2071   -0.8564 H   0  0  0  0  0  0  0  0  0  0  0  0
   -2.2819    2.4605    1.0255 H   0  0  0  0  0  0  0  0  0  0  0  0
    2.2584    2.3951    0.0700 H   0  0  0  0  0  0  0  0  0  0  0  0
    1.6411    1.7531    1.4348 H   0  0  0  0  0  0  0  0  0  0  0  0
    1.9229   -0.7715   -2.6954 H   0  0  0  0  0  0  0  0  0  0  0  0
  1 16  1  0  0  0  0
  2 15  1  0  0  0  0
  2 27  1  0  0  0  0
  3 15  2  0  0  0  0
  4 10  1  0  0  0  0
  4 11  1  0  0  0  0
  4 21  1  0  0  0  0
  5  9  1  0  0  0  0
  5 25  1  0  0  0  0
  5 26  1  0  0  0  0
  6  7  1  0  0  0  0
  6  8  1  0  0  0  0
  6 11  2  0  0  0  0
  7  9  1  0  0  0  0
  7 17  1  0  0  0  0
  7 18  1  0  0  0  0
  8 10  2  0  0  0  0
  8 12  1  0  0  0  0
  9 15  1  0  0  0  0
  9 19  1  1  0  0  0
 10 13  1  0  0  0  0
 11 20  1  0  0  0  0
 12 14  2  0  0  0  0
 12 22  1  0  0  0  0
 13 16  2  0  0  0  0
 13 23  1  0  0  0  0
 14 16  1  0  0  0  0
 14 24  1  0  0  0  0
M  END
>  <PUBCHEM_COMPOUND_CID>
9856996

>  <PUBCHEM_CONFORMER_RMSD>
0.6

>  <PUBCHEM_CONFORMER_DIVERSEORDER>
1
17
15
19
6
11
14
16
5
9
12
13
18
7
3
2
4
8
10

>  <PUBCHEM_MMFF94_PARTIAL_CHARGES>
23
1 -0.11
10 -0.15
11 -0.3
12 -0.15
13 -0.15
14 -0.15
15 0.66
16 0.11
2 -0.65
20 0.15
21 0.27
22 0.15
23 0.15
24 0.15
25 0.36
26 0.36
27 0.5
3 -0.57
4 0.03
5 -0.99
6 -0.18
7 0.18
9 0.33

>  <PUBCHEM_EFFECTIVE_ROTOR_COUNT>
3

>  <PUBCHEM_PHARMACOPHORE_FEATURES>
10
1 1 hydrophobe
1 2 acceptor
1 3 acceptor
1 4 cation
1 4 donor
1 5 cation
1 5 donor
3 2 3 15 anion
5 4 6 8 10 11 rings
6 8 10 12 13 14 16 rings

>  <PUBCHEM_HEAVY_ATOM_COUNT>
16

>  <PUBCHEM_ATOM_DEF_STEREO_COUNT>
1

>  <PUBCHEM_ATOM_UDEF_STEREO_COUNT>
0

>  <PUBCHEM_BOND_DEF_STEREO_COUNT>
0

>  <PUBCHEM_BOND_UDEF_STEREO_COUNT>
0

>  <PUBCHEM_ISOTOPIC_ATOM_COUNT>
0

>  <PUBCHEM_COMPONENT_COUNT>
1

>  <PUBCHEM_CACTVS_TAUTO_COUNT>
1

>  <PUBCHEM_CONFORMER_ID>
009667E400000001

>  <PUBCHEM_MMFF94_ENERGY>
21.0466

>  <PUBCHEM_FEATURE_SELFOVERLAP>
50.894

>  <PUBCHEM_SHAPE_FINGERPRINT>
11640471 11 17897169241491425364
13380535 76 18410294670965602035
13583140 156 17168139023441679835
14252887 29 11458712659804682608
15775835 57 18333737935238967004
16945 1 18336826377533705283
17134986 127 18410578378913635645
18186145 218 18272381874989339273
20645476 183 18408879646661047803
21524375 3 18335704922923093907
22094290 62 18335420158096341074
231179 274 17968936384086486621
23175994 123 15647323110040252050
23402539 116 18059846273071424276
23419403 2 16323922076747560138
23557571 272 17488738011970372966
23559900 14 17988922289224085616
2748010 2 17262138733348140635
3060560 45 18339925896348549358
474 4 18261115136595359761
4990 188 16845568691446478597
537710 114 18271523105353703161
58051976 378 18270678667485791717
7364860 26 18127413345488937191
7832392 63 18336824281853110036
9981440 41 17542499887858668280

>  <PUBCHEM_SHAPE_MULTIPOLES>
313.51
6.75
2.25
0.97
3
0.6
-0.15
-3.7
-0.12
-0.27
-0.29
-0.29
-0.18
-0.56

>  <PUBCHEM_SHAPE_SELFOVERLAP>
660.574

>  <PUBCHEM_SHAPE_VOLUME>
181.4

>  <PUBCHEM_COORDINATE_TYPE>
2
5
10

$$$$
9856996
 OpenBabel12092211553D

 27 28  0  0  1  0  0  0  0  0999 V2000
   -4.8081    1.4276   -0.1446 Br  0  0  0  0  0  0  0  0  0  0  0  0
    3.6342   -3.5595    1.3925 O   0  0  0  0  0  0  0  0  0  0  0  0
    2.4843   -3.7346   -0.5537 O   0  0  0  0  0  0  0  0  0  0  0  0
   -0.9988   -2.3341   -0.5475 N   0  0  0  0  0  0  0  0  0  0  0  0
    3.1814   -1.1635   -1.1940 N   0  0  0  0  0  0  0  0  0  0  0  0
    0.6524   -1.1965    0.4046 C   0  0  0  0  0  0  0  0  0  0  0  0
    1.9803   -0.8386    0.9432 C   0  0  0  0  0  0  0  0  0  0  0  0
   -0.5080   -0.3730    0.3963 C   0  0  0  0  0  0  0  0  0  0  0  0
    3.1653   -1.5257    0.2257 C   0  0  1  0  0  0  0  0  0  0  0  0
   -1.5295   -1.1104   -0.2063 C   0  0  0  0  0  0  0  0  0  0  0  0
    0.3192   -2.3955   -0.1824 C   0  0  0  0  0  0  0  0  0  0  0  0
   -0.7883    0.9330    0.8448 C   0  0  0  0  0  0  0  0  0  0  0  0
   -2.8223   -0.6050   -0.3834 C   0  0  0  0  0  0  0  0  0  0  0  0
   -2.0769    1.4517    0.6742 C   0  0  0  0  0  0  0  0  0  0  0  0
    3.0360   -3.0383    0.2893 C   0  0  0  0  0  0  0  0  0  0  0  0
   -3.0769    0.6928    0.0693 C   0  0  0  0  0  0  0  0  0  0  0  0
    2.0131   -1.0956    2.0110 H   0  0  0  0  0  0  0  0  0  0  0  0
    2.1050    0.2523    0.8974 H   0  0  0  0  0  0  0  0  0  0  0  0
    4.1201   -1.2274    0.6743 H   0  0  0  0  0  0  0  0  0  0  0  0
    0.9002   -3.2868   -0.3743 H   0  0  0  0  0  0  0  0  0  0  0  0
   -1.5092   -3.0787   -1.0019 H   0  0  0  0  0  0  0  0  0  0  0  0
   -0.0242    1.5380    1.3240 H   0  0  0  0  0  0  0  0  0  0  0  0
   -3.5919   -1.2071   -0.8564 H   0  0  0  0  0  0  0  0  0  0  0  0
   -2.2819    2.4605    1.0255 H   0  0  0  0  0  0  0  0  0  0  0  0
    4.0141   -1.5517   -1.6359 H   0  0  0  0  0  0  0  0  0  0  0  0
    3.2579   -0.1512   -1.2859 H   0  0  0  0  0  0  0  0  0  0  0  0
    3.5535   -4.5365    1.4247 H   0  0  0  0  0  0  0  0  0  0  0  0
  1 16  1  0  0  0  0
  2 15  1  0  0  0  0
  2 27  1  0  0  0  0
  3 15  2  0  0  0  0
  4 10  1  0  0  0  0
  4 11  1  0  0  0  0
  4 21  1  0  0  0  0
  5  9  1  0  0  0  0
  5 25  1  0  0  0  0
  5 26  1  0  0  0  0
  6  7  1  0  0  0  0
  6  8  1  0  0  0  0
  6 11  2  0  0  0  0
  7  9  1  0  0  0  0
  7 17  1  0  0  0  0
  7 18  1  0  0  0  0
  8 10  2  0  0  0  0
  8 12  1  0  0  0  0
  9 15  1  0  0  0  0
  9 19  1  1  0  0  0
 10 13  1  0  0  0  0
 11 20  1  0  0  0  0
 12 14  2  0  0  0  0
 12 22  1  0  0  0  0
 13 16  2  0  0  0  0
 13 23  1  0  0  0  0
 14 16  1  0  0  0  0
 14 24  1  0  0  0  0
M  END
>  <PUBCHEM_COMPOUND_CID>
9856996

>  <PUBCHEM_CONFORMER_RMSD>
0.6

>  <PUBCHEM_CONFORMER_DIVERSEORDER>
1
17
15
19
6
11
14
16
5
9
12
13
18
7
3
2
4
8
10

>  <PUBCHEM_MMFF94_PARTIAL_CHARGES>
23
1 -0.11
10 -0.15
11 -0.3
12 -0.15
13 -0.15
14 -0.15
15 0.66
16 0.11
2 -0.65
20 0.15
21 0.27
22 0.15
23 0.15
24 0.15
25 0.36
26 0.36
27 0.5
3 -0.57
4 0.03
5 -0.99
6 -0.18
7 0.18
9 0.33

>  <PUBCHEM_EFFECTIVE_ROTOR_COUNT>
3

>  <PUBCHEM_PHARMACOPHORE_FEATURES>
10
1 1 hydrophobe
1 2 acceptor
1 3 acceptor
1 4 cation
1 4 donor
1 5 cation
1 5 donor
3 2 3 15 anion
5 4 6 8 10 11 rings
6 8 10 12 13 14 16 rings

>  <PUBCHEM_HEAVY_ATOM_COUNT>
16

>  <PUBCHEM_ATOM_DEF_STEREO_COUNT>
1

>  <PUBCHEM_ATOM_UDEF_STEREO_COUNT>
0

>  <PUBCHEM_BOND_DEF_STEREO_COUNT>
0

>  <PUBCHEM_BOND_UDEF_STEREO_COUNT>
0

>  <PUBCHEM_ISOTOPIC_ATOM_COUNT>
0

>  <PUBCHEM_COMPONENT_COUNT>
1

>  <PUBCHEM_CACTVS_TAUTO_COUNT>
1

>  <PUBCHEM_CONFORMER_ID>
009667E400000001

>  <PUBCHEM_MMFF94_ENERGY>
21.0466

>  <PUBCHEM_FEATURE_SELFOVERLAP>
50.894

>  <PUBCHEM_SHAPE_FINGERPRINT>
11640471 11 17897169241491425364
13380535 76 18410294670965602035
13583140 156 17168139023441679835
14252887 29 11458712659804682608
15775835 57 18333737935238967004
16945 1 18336826377533705283
17134986 127 18410578378913635645
18186145 218 18272381874989339273
20645476 183 18408879646661047803
21524375 3 18335704922923093907
22094290 62 18335420158096341074
231179 274 17968936384086486621
23175994 123 15647323110040252050
23402539 116 18059846273071424276
23419403 2 16323922076747560138
23557571 272 17488738011970372966
23559900 14 17988922289224085616
2748010 2 17262138733348140635
3060560 45 18339925896348549358
474 4 18261115136595359761
4990 188 16845568691446478597
537710 114 18271523105353703161
58051976 378 18270678667485791717
7364860 26 18127413345488937191
7832392 63 18336824281853110036
9981440 41 17542499887858668280

>  <PUBCHEM_SHAPE_MULTIPOLES>
313.51
6.75
2.25
0.97
3
0.6
-0.15
-3.7
-0.12
-0.27
-0.29
-0.29
-0.18
-0.56

>  <PUBCHEM_SHAPE_SELFOVERLAP>
660.574

>  <PUBCHEM_SHAPE_VOLUME>
181.4

>  <PUBCHEM_COORDINATE_TYPE>
2
5
10

$$$$
9856996
 OpenBabel12092211553D

 27 28  0  0  1  0  0  0  0  0999 V2000
   -4.8081    1.4276   -0.1446 Br  0  0  0  0  0  0  0  0  0  0  0  0
    0.9359   -0.4455    3.3877 O   0  0  0  0  0  0  0  0  0  0  0  0
    0.5483    1.7631    3.0520 O   0  0  0  0  0  0  0  0  0  0  0  0
   -0.9988   -2.3341   -0.5475 N   0  0  0  0  0  0  0  0  0  0  0  0
    3.4112    0.8462    2.0522 N   0  0  0  0  0  0  0  0  0  0  0  0
    0.6524   -1.1965    0.4046 C   0  0  0  0  0  0  0  0  0  0  0  0
    1.9803   -0.8386    0.9432 C   0  0  0  0  0  0  0  0  0  0  0  0
   -0.5080   -0.3730    0.3963 C   0  0  0  0  0  0  0  0  0  0  0  0
    2.0615    0.5832    1.5458 C   0  0  1  0  0  0  0  0  0  0  0  0
   -1.5295   -1.1104   -0.2063 C   0  0  0  0  0  0  0  0  0  0  0  0
    0.3192   -2.3955   -0.1824 C   0  0  0  0  0  0  0  0  0  0  0  0
   -0.7883    0.9330    0.8448 C   0  0  0  0  0  0  0  0  0  0  0  0
   -2.8223   -0.6050   -0.3834 C   0  0  0  0  0  0  0  0  0  0  0  0
   -2.0769    1.4517    0.6742 C   0  0  0  0  0  0  0  0  0  0  0  0
    1.1159    0.7279    2.7263 C   0  0  0  0  0  0  0  0  0  0  0  0
   -3.0769    0.6928    0.0693 C   0  0  0  0  0  0  0  0  0  0  0  0
    2.7264   -0.9289    0.1416 H   0  0  0  0  0  0  0  0  0  0  0  0
    2.2714   -1.5773    1.7029 H   0  0  0  0  0  0  0  0  0  0  0  0
    1.8156    1.3414    0.7932 H   0  0  0  0  0  0  0  0  0  0  0  0
    0.9002   -3.2868   -0.3743 H   0  0  0  0  0  0  0  0  0  0  0  0
   -1.5092   -3.0787   -1.0019 H   0  0  0  0  0  0  0  0  0  0  0  0
   -0.0242    1.5380    1.3240 H   0  0  0  0  0  0  0  0  0  0  0  0
   -3.5919   -1.2071   -0.8564 H   0  0  0  0  0  0  0  0  0  0  0  0
   -2.2819    2.4605    1.0255 H   0  0  0  0  0  0  0  0  0  0  0  0
    3.4749    1.8138    2.3671 H   0  0  0  0  0  0  0  0  0  0  0  0
    4.0840    0.7507    1.2925 H   0  0  0  0  0  0  0  0  0  0  0  0
    0.3194   -0.3475    4.1443 H   0  0  0  0  0  0  0  0  0  0  0  0
  1 16  1  0  0  0  0
  2 15  1  0  0  0  0
  2 27  1  0  0  0  0
  3 15  2  0  0  0  0
  4 10  1  0  0  0  0
  4 11  1  0  0  0  0
  4 21  1  0  0  0  0
  5  9  1  0  0  0  0
  5 25  1  0  0  0  0
  5 26  1  0  0  0  0
  6  7  1  0  0  0  0
  6  8  1  0  0  0  0
  6 11  2  0  0  0  0
  7  9  1  0  0  0  0
  7 17  1  0  0  0  0
  7 18  1  0  0  0  0
  8 10  2  0  0  0  0
  8 12  1  0  0  0  0
  9 15  1  0  0  0  0
  9 19  1  6  0  0  0
 10 13  1  0  0  0  0
 11 20  1  0  0  0  0
 12 14  2  0  0  0  0
 12 22  1  0  0  0  0
 13 16  2  0  0  0  0
 13 23  1  0  0  0  0
 14 16  1  0  0  0  0
 14 24  1  0  0  0  0
M  END
>  <PUBCHEM_COMPOUND_CID>
9856996

>  <PUBCHEM_CONFORMER_RMSD>
0.6

>  <PUBCHEM_CONFORMER_DIVERSEORDER>
1
17
15
19
6
11
14
16
5
9
12
13
18
7
3
2
4
8
10

>  <PUBCHEM_MMFF94_PARTIAL_CHARGES>
23
1 -0.11
10 -0.15
11 -0.3
12 -0.15
13 -0.15
14 -0.15
15 0.66
16 0.11
2 -0.65
20 0.15
21 0.27
22 0.15
23 0.15
24 0.15
25 0.36
26 0.36
27 0.5
3 -0.57
4 0.03
5 -0.99
6 -0.18
7 0.18
9 0.33

>  <PUBCHEM_EFFECTIVE_ROTOR_COUNT>
3

>  <PUBCHEM_PHARMACOPHORE_FEATURES>
10
1 1 hydrophobe
1 2 acceptor
1 3 acceptor
1 4 cation
1 4 donor
1 5 cation
1 5 donor
3 2 3 15 anion
5 4 6 8 10 11 rings
6 8 10 12 13 14 16 rings

>  <PUBCHEM_HEAVY_ATOM_COUNT>
16

>  <PUBCHEM_ATOM_DEF_STEREO_COUNT>
1

>  <PUBCHEM_ATOM_UDEF_STEREO_COUNT>
0

>  <PUBCHEM_BOND_DEF_STEREO_COUNT>
0

>  <PUBCHEM_BOND_UDEF_STEREO_COUNT>
0

>  <PUBCHEM_ISOTOPIC_ATOM_COUNT>
0

>  <PUBCHEM_COMPONENT_COUNT>
1

>  <PUBCHEM_CACTVS_TAUTO_COUNT>
1

>  <PUBCHEM_CONFORMER_ID>
009667E400000001

>  <PUBCHEM_MMFF94_ENERGY>
21.0466

>  <PUBCHEM_FEATURE_SELFOVERLAP>
50.894

>  <PUBCHEM_SHAPE_FINGERPRINT>
11640471 11 17897169241491425364
13380535 76 18410294670965602035
13583140 156 17168139023441679835
14252887 29 11458712659804682608
15775835 57 18333737935238967004
16945 1 18336826377533705283
17134986 127 18410578378913635645
18186145 218 18272381874989339273
20645476 183 18408879646661047803
21524375 3 18335704922923093907
22094290 62 18335420158096341074
231179 274 17968936384086486621
23175994 123 15647323110040252050
23402539 116 18059846273071424276
23419403 2 16323922076747560138
23557571 272 17488738011970372966
23559900 14 17988922289224085616
2748010 2 17262138733348140635
3060560 45 18339925896348549358
474 4 18261115136595359761
4990 188 16845568691446478597
537710 114 18271523105353703161
58051976 378 18270678667485791717
7364860 26 18127413345488937191
7832392 63 18336824281853110036
9981440 41 17542499887858668280

>  <PUBCHEM_SHAPE_MULTIPOLES>
313.51
6.75
2.25
0.97
3
0.6
-0.15
-3.7
-0.12
-0.27
-0.29
-0.29
-0.18
-0.56

>  <PUBCHEM_SHAPE_SELFOVERLAP>
660.574

>  <PUBCHEM_SHAPE_VOLUME>
181.4

>  <PUBCHEM_COORDINATE_TYPE>
2
5
10

$$$$
9856996
 OpenBabel12092211553D

 27 28  0  0  1  0  0  0  0  0999 V2000
   -4.8081    1.4276   -0.1446 Br  0  0  0  0  0  0  0  0  0  0  0  0
    5.0266   -0.0269    0.3095 O   0  0  0  0  0  0  0  0  0  0  0  0
    5.0375   -1.7594    1.7720 O   0  0  0  0  0  0  0  0  0  0  0  0
   -0.9988   -2.3341   -0.5475 N   0  0  0  0  0  0  0  0  0  0  0  0
    3.0519   -2.9826    0.3340 N   0  0  0  0  0  0  0  0  0  0  0  0
    0.6524   -1.1965    0.4046 C   0  0  0  0  0  0  0  0  0  0  0  0
    1.9803   -0.8386    0.9432 C   0  0  0  0  0  0  0  0  0  0  0  0
   -0.5080   -0.3730    0.3963 C   0  0  0  0  0  0  0  0  0  0  0  0
    3.1653   -1.5257    0.2257 C   0  0  1  0  0  0  0  0  0  0  0  0
   -1.5295   -1.1104   -0.2063 C   0  0  0  0  0  0  0  0  0  0  0  0
    0.3192   -2.3955   -0.1824 C   0  0  0  0  0  0  0  0  0  0  0  0
   -0.7883    0.9330    0.8448 C   0  0  0  0  0  0  0  0  0  0  0  0
   -2.8223   -0.6050   -0.3834 C   0  0  0  0  0  0  0  0  0  0  0  0
   -2.0769    1.4517    0.6742 C   0  0  0  0  0  0  0  0  0  0  0  0
    4.4870   -1.1413    0.8694 C   0  0  0  0  0  0  0  0  0  0  0  0
   -3.0769    0.6928    0.0693 C   0  0  0  0  0  0  0  0  0  0  0  0
    2.0131   -1.0956    2.0110 H   0  0  0  0  0  0  0  0  0  0  0  0
    2.1050    0.2523    0.8974 H   0  0  0  0  0  0  0  0  0  0  0  0
    3.1902   -1.2541   -0.8361 H   0  0  0  0  0  0  0  0  0  0  0  0
    0.9002   -3.2868   -0.3743 H   0  0  0  0  0  0  0  0  0  0  0  0
   -1.5092   -3.0787   -1.0019 H   0  0  0  0  0  0  0  0  0  0  0  0
   -0.0242    1.5380    1.3240 H   0  0  0  0  0  0  0  0  0  0  0  0
   -3.5919   -1.2071   -0.8564 H   0  0  0  0  0  0  0  0  0  0  0  0
   -2.2819    2.4605    1.0255 H   0  0  0  0  0  0  0  0  0  0  0  0
    3.7890   -3.4240   -0.2147 H   0  0  0  0  0  0  0  0  0  0  0  0
    2.1708   -3.2866   -0.0788 H   0  0  0  0  0  0  0  0  0  0  0  0
    5.8827    0.2124    0.7242 H   0  0  0  0  0  0  0  0  0  0  0  0
  1 16  1  0  0  0  0
  2 15  1  0  0  0  0
  2 27  1  0  0  0  0
  3 15  2  0  0  0  0
  4 10  1  0  0  0  0
  4 11  1  0  0  0  0
  4 21  1  0  0  0  0
  5  9  1  0  0  0  0
  5 25  1  0  0  0  0
  5 26  1  0  0  0  0
  6  7  1  0  0  0  0
  6  8  1  0  0  0  0
  6 11  2  0  0  0  0
  7  9  1  0  0  0  0
  7 17  1  0  0  0  0
  7 18  1  0  0  0  0
  8 10  2  0  0  0  0
  8 12  1  0  0  0  0
  9 15  1  0  0  0  0
  9 19  1  6  0  0  0
 10 13  1  0  0  0  0
 11 20  1  0  0  0  0
 12 14  2  0  0  0  0
 12 22  1  0  0  0  0
 13 16  2  0  0  0  0
 13 23  1  0  0  0  0
 14 16  1  0  0  0  0
 14 24  1  0  0  0  0
M  END
>  <PUBCHEM_COMPOUND_CID>
9856996

>  <PUBCHEM_CONFORMER_RMSD>
0.6

>  <PUBCHEM_CONFORMER_DIVERSEORDER>
1
17
15
19
6
11
14
16
5
9
12
13
18
7
3
2
4
8
10

>  <PUBCHEM_MMFF94_PARTIAL_CHARGES>
23
1 -0.11
10 -0.15
11 -0.3
12 -0.15
13 -0.15
14 -0.15
15 0.66
16 0.11
2 -0.65
20 0.15
21 0.27
22 0.15
23 0.15
24 0.15
25 0.36
26 0.36
27 0.5
3 -0.57
4 0.03
5 -0.99
6 -0.18
7 0.18
9 0.33

>  <PUBCHEM_EFFECTIVE_ROTOR_COUNT>
3

>  <PUBCHEM_PHARMACOPHORE_FEATURES>
10
1 1 hydrophobe
1 2 acceptor
1 3 acceptor
1 4 cation
1 4 donor
1 5 cation
1 5 donor
3 2 3 15 anion
5 4 6 8 10 11 rings
6 8 10 12 13 14 16 rings

>  <PUBCHEM_HEAVY_ATOM_COUNT>
16

>  <PUBCHEM_ATOM_DEF_STEREO_COUNT>
1

>  <PUBCHEM_ATOM_UDEF_STEREO_COUNT>
0

>  <PUBCHEM_BOND_DEF_STEREO_COUNT>
0

>  <PUBCHEM_BOND_UDEF_STEREO_COUNT>
0

>  <PUBCHEM_ISOTOPIC_ATOM_COUNT>
0

>  <PUBCHEM_COMPONENT_COUNT>
1

>  <PUBCHEM_CACTVS_TAUTO_COUNT>
1

>  <PUBCHEM_CONFORMER_ID>
009667E400000001

>  <PUBCHEM_MMFF94_ENERGY>
21.0466

>  <PUBCHEM_FEATURE_SELFOVERLAP>
50.894

>  <PUBCHEM_SHAPE_FINGERPRINT>
11640471 11 17897169241491425364
13380535 76 18410294670965602035
13583140 156 17168139023441679835
14252887 29 11458712659804682608
15775835 57 18333737935238967004
16945 1 18336826377533705283
17134986 127 18410578378913635645
18186145 218 18272381874989339273
20645476 183 18408879646661047803
21524375 3 18335704922923093907
22094290 62 18335420158096341074
231179 274 17968936384086486621
23175994 123 15647323110040252050
23402539 116 18059846273071424276
23419403 2 16323922076747560138
23557571 272 17488738011970372966
23559900 14 17988922289224085616
2748010 2 17262138733348140635
3060560 45 18339925896348549358
474 4 18261115136595359761
4990 188 16845568691446478597
537710 114 18271523105353703161
58051976 378 18270678667485791717
7364860 26 18127413345488937191
7832392 63 18336824281853110036
9981440 41 17542499887858668280

>  <PUBCHEM_SHAPE_MULTIPOLES>
313.51
6.75
2.25
0.97
3
0.6
-0.15
-3.7
-0.12
-0.27
-0.29
-0.29
-0.18
-0.56

>  <PUBCHEM_SHAPE_SELFOVERLAP>
660.574

>  <PUBCHEM_SHAPE_VOLUME>
181.4

>  <PUBCHEM_COORDINATE_TYPE>
2
5
10

$$$$
9856996
 OpenBabel12092211553D

 27 28  0  0  1  0  0  0  0  0999 V2000
   -4.8081    1.4276   -0.1446 Br  0  0  0  0  0  0  0  0  0  0  0  0
    1.3647    2.1776   -0.6947 O   0  0  0  0  0  0  0  0  0  0  0  0
    1.5117    2.1306    1.5673 O   0  0  0  0  0  0  0  0  0  0  0  0
   -0.9988   -2.3341   -0.5475 N   0  0  0  0  0  0  0  0  0  0  0  0
    3.9387    0.6698    0.8689 N   0  0  0  0  0  0  0  0  0  0  0  0
    0.6524   -1.1965    0.4046 C   0  0  0  0  0  0  0  0  0  0  0  0
    1.9803   -0.8386    0.9432 C   0  0  0  0  0  0  0  0  0  0  0  0
   -0.5080   -0.3730    0.3963 C   0  0  0  0  0  0  0  0  0  0  0  0
    2.6299    0.3930    0.2707 C   0  0  1  0  0  0  0  0  0  0  0  0
   -1.5295   -1.1104   -0.2063 C   0  0  0  0  0  0  0  0  0  0  0  0
    0.3192   -2.3955   -0.1824 C   0  0  0  0  0  0  0  0  0  0  0  0
   -0.7883    0.9330    0.8448 C   0  0  0  0  0  0  0  0  0  0  0  0
   -2.8223   -0.6050   -0.3834 C   0  0  0  0  0  0  0  0  0  0  0  0
   -2.0769    1.4517    0.6742 C   0  0  0  0  0  0  0  0  0  0  0  0
    1.7822    1.6366    0.4798 C   0  0  0  0  0  0  0  0  0  0  0  0
   -3.0769    0.6928    0.0693 C   0  0  0  0  0  0  0  0  0  0  0  0
    2.6534   -1.7003    0.8343 H   0  0  0  0  0  0  0  0  0  0  0  0
    1.8949   -0.6648    2.0249 H   0  0  0  0  0  0  0  0  0  0  0  0
    2.7642    0.2261   -0.8044 H   0  0  0  0  0  0  0  0  0  0  0  0
    0.9002   -3.2868   -0.3743 H   0  0  0  0  0  0  0  0  0  0  0  0
   -1.5092   -3.0787   -1.0019 H   0  0  0  0  0  0  0  0  0  0  0  0
   -0.0242    1.5380    1.3240 H   0  0  0  0  0  0  0  0  0  0  0  0
   -3.5919   -1.2071   -0.8564 H   0  0  0  0  0  0  0  0  0  0  0  0
   -2.2819    2.4605    1.0255 H   0  0  0  0  0  0  0  0  0  0  0  0
    4.3928    1.4278    0.3605 H   0  0  0  0  0  0  0  0  0  0  0  0
    4.5414   -0.1451    0.7602 H   0  0  0  0  0  0  0  0  0  0  0  0
    0.8238    2.9837   -0.5539 H   0  0  0  0  0  0  0  0  0  0  0  0
  1 16  1  0  0  0  0
  2 15  1  0  0  0  0
  2 27  1  0  0  0  0
  3 15  2  0  0  0  0
  4 10  1  0  0  0  0
  4 11  1  0  0  0  0
  4 21  1  0  0  0  0
  5  9  1  0  0  0  0
  5 25  1  0  0  0  0
  5 26  1  0  0  0  0
  6  7  1  0  0  0  0
  6  8  1  0  0  0  0
  6 11  2  0  0  0  0
  7  9  1  0  0  0  0
  7 17  1  0  0  0  0
  7 18  1  0  0  0  0
  8 10  2  0  0  0  0
  8 12  1  0  0  0  0
  9 15  1  0  0  0  0
  9 19  1  6  0  0  0
 10 13  1  0  0  0  0
 11 20  1  0  0  0  0
 12 14  2  0  0  0  0
 12 22  1  0  0  0  0
 13 16  2  0  0  0  0
 13 23  1  0  0  0  0
 14 16  1  0  0  0  0
 14 24  1  0  0  0  0
M  END
>  <PUBCHEM_COMPOUND_CID>
9856996

>  <PUBCHEM_CONFORMER_RMSD>
0.6

>  <PUBCHEM_CONFORMER_DIVERSEORDER>
1
17
15
19
6
11
14
16
5
9
12
13
18
7
3
2
4
8
10

>  <PUBCHEM_MMFF94_PARTIAL_CHARGES>
23
1 -0.11
10 -0.15
11 -0.3
12 -0.15
13 -0.15
14 -0.15
15 0.66
16 0.11
2 -0.65
20 0.15
21 0.27
22 0.15
23 0.15
24 0.15
25 0.36
26 0.36
27 0.5
3 -0.57
4 0.03
5 -0.99
6 -0.18
7 0.18
9 0.33

>  <PUBCHEM_EFFECTIVE_ROTOR_COUNT>
3

>  <PUBCHEM_PHARMACOPHORE_FEATURES>
10
1 1 hydrophobe
1 2 acceptor
1 3 acceptor
1 4 cation
1 4 donor
1 5 cation
1 5 donor
3 2 3 15 anion
5 4 6 8 10 11 rings
6 8 10 12 13 14 16 rings

>  <PUBCHEM_HEAVY_ATOM_COUNT>
16

>  <PUBCHEM_ATOM_DEF_STEREO_COUNT>
1

>  <PUBCHEM_ATOM_UDEF_STEREO_COUNT>
0

>  <PUBCHEM_BOND_DEF_STEREO_COUNT>
0

>  <PUBCHEM_BOND_UDEF_STEREO_COUNT>
0

>  <PUBCHEM_ISOTOPIC_ATOM_COUNT>
0

>  <PUBCHEM_COMPONENT_COUNT>
1

>  <PUBCHEM_CACTVS_TAUTO_COUNT>
1

>  <PUBCHEM_CONFORMER_ID>
009667E400000001

>  <PUBCHEM_MMFF94_ENERGY>
21.0466

>  <PUBCHEM_FEATURE_SELFOVERLAP>
50.894

>  <PUBCHEM_SHAPE_FINGERPRINT>
11640471 11 17897169241491425364
13380535 76 18410294670965602035
13583140 156 17168139023441679835
14252887 29 11458712659804682608
15775835 57 18333737935238967004
16945 1 18336826377533705283
17134986 127 18410578378913635645
18186145 218 18272381874989339273
20645476 183 18408879646661047803
21524375 3 18335704922923093907
22094290 62 18335420158096341074
231179 274 17968936384086486621
23175994 123 15647323110040252050
23402539 116 18059846273071424276
23419403 2 16323922076747560138
23557571 272 17488738011970372966
23559900 14 17988922289224085616
2748010 2 17262138733348140635
3060560 45 18339925896348549358
474 4 18261115136595359761
4990 188 16845568691446478597
537710 114 18271523105353703161
58051976 378 18270678667485791717
7364860 26 18127413345488937191
7832392 63 18336824281853110036
9981440 41 17542499887858668280

>  <PUBCHEM_SHAPE_MULTIPOLES>
313.51
6.75
2.25
0.97
3
0.6
-0.15
-3.7
-0.12
-0.27
-0.29
-0.29
-0.18
-0.56

>  <PUBCHEM_SHAPE_SELFOVERLAP>
660.574

>  <PUBCHEM_SHAPE_VOLUME>
181.4

>  <PUBCHEM_COORDINATE_TYPE>
2
5
10

$$$$
9856996
 OpenBabel12092211553D

 27 28  0  0  1  0  0  0  0  0999 V2000
   -4.8081    1.4276   -0.1446 Br  0  0  0  0  0  0  0  0  0  0  0  0
    4.8417   -1.9956    1.8648 O   0  0  0  0  0  0  0  0  0  0  0  0
    5.1626   -0.1665    0.5639 O   0  0  0  0  0  0  0  0  0  0  0  0
   -0.9988   -2.3341   -0.5475 N   0  0  0  0  0  0  0  0  0  0  0  0
    3.0519   -2.9826    0.3340 N   0  0  0  0  0  0  0  0  0  0  0  0
    0.6524   -1.1965    0.4046 C   0  0  0  0  0  0  0  0  0  0  0  0
    1.9803   -0.8386    0.9432 C   0  0  0  0  0  0  0  0  0  0  0  0
   -0.5080   -0.3730    0.3963 C   0  0  0  0  0  0  0  0  0  0  0  0
    3.1653   -1.5257    0.2257 C   0  0  1  0  0  0  0  0  0  0  0  0
   -1.5295   -1.1104   -0.2063 C   0  0  0  0  0  0  0  0  0  0  0  0
    0.3192   -2.3955   -0.1824 C   0  0  0  0  0  0  0  0  0  0  0  0
   -0.7883    0.9330    0.8448 C   0  0  0  0  0  0  0  0  0  0  0  0
   -2.8223   -0.6050   -0.3834 C   0  0  0  0  0  0  0  0  0  0  0  0
   -2.0769    1.4517    0.6742 C   0  0  0  0  0  0  0  0  0  0  0  0
    4.4870   -1.1413    0.8694 C   0  0  0  0  0  0  0  0  0  0  0  0
   -3.0769    0.6928    0.0693 C   0  0  0  0  0  0  0  0  0  0  0  0
    2.0131   -1.0956    2.0110 H   0  0  0  0  0  0  0  0  0  0  0  0
    2.1050    0.2523    0.8974 H   0  0  0  0  0  0  0  0  0  0  0  0
    3.1902   -1.2541   -0.8361 H   0  0  0  0  0  0  0  0  0  0  0  0
    0.9002   -3.2868   -0.3743 H   0  0  0  0  0  0  0  0  0  0  0  0
   -1.5092   -3.0787   -1.0019 H   0  0  0  0  0  0  0  0  0  0  0  0
   -0.0242    1.5380    1.3240 H   0  0  0  0  0  0  0  0  0  0  0  0
   -3.5919   -1.2071   -0.8564 H   0  0  0  0  0  0  0  0  0  0  0  0
   -2.2819    2.4605    1.0255 H   0  0  0  0  0  0  0  0  0  0  0  0
    3.7890   -3.4240   -0.2147 H   0  0  0  0  0  0  0  0  0  0  0  0
    2.1708   -3.2866   -0.0788 H   0  0  0  0  0  0  0  0  0  0  0  0
    5.6920   -1.7386    2.2811 H   0  0  0  0  0  0  0  0  0  0  0  0
  1 16  1  0  0  0  0
  2 15  1  0  0  0  0
  2 27  1  0  0  0  0
  3 15  2  0  0  0  0
  4 10  1  0  0  0  0
  4 11  1  0  0  0  0
  4 21  1  0  0  0  0
  5  9  1  0  0  0  0
  5 25  1  0  0  0  0
  5 26  1  0  0  0  0
  6  7  1  0  0  0  0
  6  8  1  0  0  0  0
  6 11  2  0  0  0  0
  7  9  1  0  0  0  0
  7 17  1  0  0  0  0
  7 18  1  0  0  0  0
  8 10  2  0  0  0  0
  8 12  1  0  0  0  0
  9 15  1  0  0  0  0
  9 19  1  6  0  0  0
 10 13  1  0  0  0  0
 11 20  1  0  0  0  0
 12 14  2  0  0  0  0
 12 22  1  0  0  0  0
 13 16  2  0  0  0  0
 13 23  1  0  0  0  0
 14 16  1  0  0  0  0
 14 24  1  0  0  0  0
M  END
>  <PUBCHEM_COMPOUND_CID>
9856996

>  <PUBCHEM_CONFORMER_RMSD>
0.6

>  <PUBCHEM_CONFORMER_DIVERSEORDER>
1
17
15
19
6
11
14
16
5
9
12
13
18
7
3
2
4
8
10

>  <PUBCHEM_MMFF94_PARTIAL_CHARGES>
23
1 -0.11
10 -0.15
11 -0.3
12 -0.15
13 -0.15
14 -0.15
15 0.66
16 0.11
2 -0.65
20 0.15
21 0.27
22 0.15
23 0.15
24 0.15
25 0.36
26 0.36
27 0.5
3 -0.57
4 0.03
5 -0.99
6 -0.18
7 0.18
9 0.33

>  <PUBCHEM_EFFECTIVE_ROTOR_COUNT>
3

>  <PUBCHEM_PHARMACOPHORE_FEATURES>
10
1 1 hydrophobe
1 2 acceptor
1 3 acceptor
1 4 cation
1 4 donor
1 5 cation
1 5 donor
3 2 3 15 anion
5 4 6 8 10 11 rings
6 8 10 12 13 14 16 rings

>  <PUBCHEM_HEAVY_ATOM_COUNT>
16

>  <PUBCHEM_ATOM_DEF_STEREO_COUNT>
1

>  <PUBCHEM_ATOM_UDEF_STEREO_COUNT>
0

>  <PUBCHEM_BOND_DEF_STEREO_COUNT>
0

>  <PUBCHEM_BOND_UDEF_STEREO_COUNT>
0

>  <PUBCHEM_ISOTOPIC_ATOM_COUNT>
0

>  <PUBCHEM_COMPONENT_COUNT>
1

>  <PUBCHEM_CACTVS_TAUTO_COUNT>
1

>  <PUBCHEM_CONFORMER_ID>
009667E400000001

>  <PUBCHEM_MMFF94_ENERGY>
21.0466

>  <PUBCHEM_FEATURE_SELFOVERLAP>
50.894

>  <PUBCHEM_SHAPE_FINGERPRINT>
11640471 11 17897169241491425364
13380535 76 18410294670965602035
13583140 156 17168139023441679835
14252887 29 11458712659804682608
15775835 57 18333737935238967004
16945 1 18336826377533705283
17134986 127 18410578378913635645
18186145 218 18272381874989339273
20645476 183 18408879646661047803
21524375 3 18335704922923093907
22094290 62 18335420158096341074
231179 274 17968936384086486621
23175994 123 15647323110040252050
23402539 116 18059846273071424276
23419403 2 16323922076747560138
23557571 272 17488738011970372966
23559900 14 17988922289224085616
2748010 2 17262138733348140635
3060560 45 18339925896348549358
474 4 18261115136595359761
4990 188 16845568691446478597
537710 114 18271523105353703161
58051976 378 18270678667485791717
7364860 26 18127413345488937191
7832392 63 18336824281853110036
9981440 41 17542499887858668280

>  <PUBCHEM_SHAPE_MULTIPOLES>
313.51
6.75
2.25
0.97
3
0.6
-0.15
-3.7
-0.12
-0.27
-0.29
-0.29
-0.18
-0.56

>  <PUBCHEM_SHAPE_SELFOVERLAP>
660.574

>  <PUBCHEM_SHAPE_VOLUME>
181.4

>  <PUBCHEM_COORDINATE_TYPE>
2
5
10

$$$$
9856996
 OpenBabel12092211553D

 27 28  0  0  1  0  0  0  0  0999 V2000
   -4.8081    1.4276   -0.1446 Br  0  0  0  0  0  0  0  0  0  0  0  0
    0.6560    1.9991    2.8638 O   0  0  0  0  0  0  0  0  0  0  0  0
    0.8062   -0.1731    3.4959 O   0  0  0  0  0  0  0  0  0  0  0  0
   -0.9988   -2.3341   -0.5475 N   0  0  0  0  0  0  0  0  0  0  0  0
    3.4112    0.8462    2.0522 N   0  0  0  0  0  0  0  0  0  0  0  0
    0.6524   -1.1965    0.4046 C   0  0  0  0  0  0  0  0  0  0  0  0
    1.9803   -0.8386    0.9432 C   0  0  0  0  0  0  0  0  0  0  0  0
   -0.5080   -0.3730    0.3963 C   0  0  0  0  0  0  0  0  0  0  0  0
    2.0615    0.5832    1.5458 C   0  0  1  0  0  0  0  0  0  0  0  0
   -1.5295   -1.1104   -0.2063 C   0  0  0  0  0  0  0  0  0  0  0  0
    0.3192   -2.3955   -0.1824 C   0  0  0  0  0  0  0  0  0  0  0  0
   -0.7883    0.9330    0.8448 C   0  0  0  0  0  0  0  0  0  0  0  0
   -2.8223   -0.6050   -0.3834 C   0  0  0  0  0  0  0  0  0  0  0  0
   -2.0769    1.4517    0.6742 C   0  0  0  0  0  0  0  0  0  0  0  0
    1.1159    0.7279    2.7263 C   0  0  0  0  0  0  0  0  0  0  0  0
   -3.0769    0.6928    0.0693 C   0  0  0  0  0  0  0  0  0  0  0  0
    2.7264   -0.9289    0.1416 H   0  0  0  0  0  0  0  0  0  0  0  0
    2.2714   -1.5773    1.7029 H   0  0  0  0  0  0  0  0  0  0  0  0
    1.8156    1.3414    0.7932 H   0  0  0  0  0  0  0  0  0  0  0  0
    0.9002   -3.2868   -0.3743 H   0  0  0  0  0  0  0  0  0  0  0  0
   -1.5092   -3.0787   -1.0019 H   0  0  0  0  0  0  0  0  0  0  0  0
   -0.0242    1.5380    1.3240 H   0  0  0  0  0  0  0  0  0  0  0  0
   -3.5919   -1.2071   -0.8564 H   0  0  0  0  0  0  0  0  0  0  0  0
   -2.2819    2.4605    1.0255 H   0  0  0  0  0  0  0  0  0  0  0  0
    3.4749    1.8138    2.3671 H   0  0  0  0  0  0  0  0  0  0  0  0
    4.0840    0.7507    1.2925 H   0  0  0  0  0  0  0  0  0  0  0  0
    0.0517    2.0880    3.6314 H   0  0  0  0  0  0  0  0  0  0  0  0
  1 16  1  0  0  0  0
  2 15  1  0  0  0  0
  2 27  1  0  0  0  0
  3 15  2  0  0  0  0
  4 10  1  0  0  0  0
  4 11  1  0  0  0  0
  4 21  1  0  0  0  0
  5  9  1  0  0  0  0
  5 25  1  0  0  0  0
  5 26  1  0  0  0  0
  6  7  1  0  0  0  0
  6  8  1  0  0  0  0
  6 11  2  0  0  0  0
  7  9  1  0  0  0  0
  7 17  1  0  0  0  0
  7 18  1  0  0  0  0
  8 10  2  0  0  0  0
  8 12  1  0  0  0  0
  9 15  1  0  0  0  0
  9 19  1  6  0  0  0
 10 13  1  0  0  0  0
 11 20  1  0  0  0  0
 12 14  2  0  0  0  0
 12 22  1  0  0  0  0
 13 16  2  0  0  0  0
 13 23  1  0  0  0  0
 14 16  1  0  0  0  0
 14 24  1  0  0  0  0
M  END
>  <PUBCHEM_COMPOUND_CID>
9856996

>  <PUBCHEM_CONFORMER_RMSD>
0.6

>  <PUBCHEM_CONFORMER_DIVERSEORDER>
1
17
15
19
6
11
14
16
5
9
12
13
18
7
3
2
4
8
10

>  <PUBCHEM_MMFF94_PARTIAL_CHARGES>
23
1 -0.11
10 -0.15
11 -0.3
12 -0.15
13 -0.15
14 -0.15
15 0.66
16 0.11
2 -0.65
20 0.15
21 0.27
22 0.15
23 0.15
24 0.15
25 0.36
26 0.36
27 0.5
3 -0.57
4 0.03
5 -0.99
6 -0.18
7 0.18
9 0.33

>  <PUBCHEM_EFFECTIVE_ROTOR_COUNT>
3

>  <PUBCHEM_PHARMACOPHORE_FEATURES>
10
1 1 hydrophobe
1 2 acceptor
1 3 acceptor
1 4 cation
1 4 donor
1 5 cation
1 5 donor
3 2 3 15 anion
5 4 6 8 10 11 rings
6 8 10 12 13 14 16 rings

>  <PUBCHEM_HEAVY_ATOM_COUNT>
16

>  <PUBCHEM_ATOM_DEF_STEREO_COUNT>
1

>  <PUBCHEM_ATOM_UDEF_STEREO_COUNT>
0

>  <PUBCHEM_BOND_DEF_STEREO_COUNT>
0

>  <PUBCHEM_BOND_UDEF_STEREO_COUNT>
0

>  <PUBCHEM_ISOTOPIC_ATOM_COUNT>
0

>  <PUBCHEM_COMPONENT_COUNT>
1

>  <PUBCHEM_CACTVS_TAUTO_COUNT>
1

>  <PUBCHEM_CONFORMER_ID>
009667E400000001

>  <PUBCHEM_MMFF94_ENERGY>
21.0466

>  <PUBCHEM_FEATURE_SELFOVERLAP>
50.894

>  <PUBCHEM_SHAPE_FINGERPRINT>
11640471 11 17897169241491425364
13380535 76 18410294670965602035
13583140 156 17168139023441679835
14252887 29 11458712659804682608
15775835 57 18333737935238967004
16945 1 18336826377533705283
17134986 127 18410578378913635645
18186145 218 18272381874989339273
20645476 183 18408879646661047803
21524375 3 18335704922923093907
22094290 62 18335420158096341074
231179 274 17968936384086486621
23175994 123 15647323110040252050
23402539 116 18059846273071424276
23419403 2 16323922076747560138
23557571 272 17488738011970372966
23559900 14 17988922289224085616
2748010 2 17262138733348140635
3060560 45 18339925896348549358
474 4 18261115136595359761
4990 188 16845568691446478597
537710 114 18271523105353703161
58051976 378 18270678667485791717
7364860 26 18127413345488937191
7832392 63 18336824281853110036
9981440 41 17542499887858668280

>  <PUBCHEM_SHAPE_MULTIPOLES>
313.51
6.75
2.25
0.97
3
0.6
-0.15
-3.7
-0.12
-0.27
-0.29
-0.29
-0.18
-0.56

>  <PUBCHEM_SHAPE_SELFOVERLAP>
660.574

>  <PUBCHEM_SHAPE_VOLUME>
181.4

>  <PUBCHEM_COORDINATE_TYPE>
2
5
10

$$$$
