10062693
  -OEChem-12092212393D

 27 28  0     1  0  0  0  0  0999 V2000
   -4.6519    1.4032   -0.1345 Cl  0  0  0  0  0  0  0  0  0  0  0  0
    1.6518    0.9945   -1.7282 O   0  0  0  0  0  0  0  0  0  0  0  0
    2.5184    2.2150   -0.0252 O   0  0  0  0  0  0  0  0  0  0  0  0
   -1.0263   -2.3226   -0.5460 N   0  0  0  0  0  0  0  0  0  0  0  0
    4.2082    0.1050    0.5415 N   0  0  0  0  0  0  0  0  0  0  0  0
    0.6326   -1.1967    0.4063 C   0  0  0  0  0  0  0  0  0  0  0  0
    1.9626   -0.8486    0.9462 C   0  0  0  0  0  0  0  0  0  0  0  0
   -0.5212   -0.3639    0.3950 C   0  0  0  0  0  0  0  0  0  0  0  0
    2.9146   -0.1913   -0.0798 C   0  0  1  0  0  0  0  0  0  0  0  0
   -1.5477   -1.0942   -0.2078 C   0  0  0  0  0  0  0  0  0  0  0  0
    0.2906   -2.3941   -0.1788 C   0  0  0  0  0  0  0  0  0  0  0  0
   -0.7916    0.9450    0.8409 C   0  0  0  0  0  0  0  0  0  0  0  0
   -2.8363   -0.5787   -0.3876 C   0  0  0  0  0  0  0  0  0  0  0  0
   -2.0759    1.4737    0.6678 C   0  0  0  0  0  0  0  0  0  0  0  0
    2.3530    1.1320   -0.5723 C   0  0  0  0  0  0  0  0  0  0  0  0
   -3.0811    0.7218    0.0626 C   0  0  0  0  0  0  0  0  0  0  0  0
    2.4367   -1.7582    1.3403 H   0  0  0  0  0  0  0  0  0  0  0  0
    1.8368   -0.1822    1.8107 H   0  0  0  0  0  0  0  0  0  0  0  0
    3.0814   -0.8528   -0.9380 H   0  0  0  0  0  0  0  0  0  0  0  0
    0.8646   -3.2906   -0.3681 H   0  0  0  0  0  0  0  0  0  0  0  0
   -1.5419   -3.0639   -1.0000 H   0  0  0  0  0  0  0  0  0  0  0  0
   -0.0235    1.5447    1.3203 H   0  0  0  0  0  0  0  0  0  0  0  0
   -3.6113   -1.1739   -0.8604 H   0  0  0  0  0  0  0  0  0  0  0  0
   -2.2756    2.4845    1.0165 H   0  0  0  0  0  0  0  0  0  0  0  0
    4.8534    0.4571   -0.1651 H   0  0  0  0  0  0  0  0  0  0  0  0
    4.6202   -0.7570    0.8968 H   0  0  0  0  0  0  0  0  0  0  0  0
    1.2978    1.8527   -2.0449 H   0  0  0  0  0  0  0  0  0  0  0  0
  1 16  1  0  0  0  0
  2 15  1  0  0  0  0
  2 27  1  0  0  0  0
  3 15  2  0  0  0  0
  4 10  1  0  0  0  0
  4 11  1  0  0  0  0
  4 21  1  0  0  0  0
  5  9  1  0  0  0  0
  5 25  1  0  0  0  0
  5 26  1  0  0  0  0
  6  7  1  0  0  0  0
  6  8  1  0  0  0  0
  6 11  2  0  0  0  0
  7  9  1  0  0  0  0
  7 17  1  0  0  0  0
  7 18  1  0  0  0  0
  8 10  2  0  0  0  0
  8 12  1  0  0  0  0
  9 15  1  0  0  0  0
  9 19  1  0  0  0  0
 10 13  1  0  0  0  0
 11 20  1  0  0  0  0
 12 14  2  0  0  0  0
 12 22  1  0  0  0  0
 13 16  2  0  0  0  0
 13 23  1  0  0  0  0
 14 16  1  0  0  0  0
 14 24  1  0  0  0  0
M  END
> <PUBCHEM_COMPOUND_CID>
10062693

> <PUBCHEM_CONFORMER_RMSD>
0.6

> <PUBCHEM_CONFORMER_DIVERSEORDER>
1
17
14
15
6
5
11
16
19
12
9
13
18
7
3
2
4
8
10

> <PUBCHEM_MMFF94_PARTIAL_CHARGES>
23
1 -0.18
10 -0.15
11 -0.3
12 -0.15
13 -0.15
14 -0.15
15 0.66
16 0.18
2 -0.65
20 0.15
21 0.27
22 0.15
23 0.15
24 0.15
25 0.36
26 0.36
27 0.5
3 -0.57
4 0.03
5 -0.99
6 -0.18
7 0.18
9 0.33

> <PUBCHEM_EFFECTIVE_ROTOR_COUNT>
3

> <PUBCHEM_PHARMACOPHORE_FEATURES>
9
1 2 acceptor
1 3 acceptor
1 4 cation
1 4 donor
1 5 cation
1 5 donor
3 2 3 15 anion
5 4 6 8 10 11 rings
6 8 10 12 13 14 16 rings

> <PUBCHEM_HEAVY_ATOM_COUNT>
16

> <PUBCHEM_ATOM_DEF_STEREO_COUNT>
1

> <PUBCHEM_ATOM_UDEF_STEREO_COUNT>
0

> <PUBCHEM_BOND_DEF_STEREO_COUNT>
0

> <PUBCHEM_BOND_UDEF_STEREO_COUNT>
0

> <PUBCHEM_ISOTOPIC_ATOM_COUNT>
0

> <PUBCHEM_COMPONENT_COUNT>
1

> <PUBCHEM_CACTVS_TAUTO_COUNT>
1

> <PUBCHEM_CONFORMER_ID>
00998B6500000001

> <PUBCHEM_MMFF94_ENERGY>
20.8722

> <PUBCHEM_FEATURE_SELFOVERLAP>
45.82

> <PUBCHEM_SHAPE_FINGERPRINT>
11640471 11 17897169241496700116
13380535 76 18410294670933973003
13583140 156 17168139023420613315
15775835 57 18334019405910167348
16945 1 18337673005782027651
17134986 127 18410578374618668357
18186145 218 18272381870667978737
20645476 183 18408598171668519395
21524375 3 18335423447925303731
22094290 62 18335419058584713298
231179 274 17968653805271512917
23175994 123 15647323105745291258
23402539 116 18059846273108328044
23419403 2 16323922072468417122
23557571 272 17560515230569604782
23559900 14 17988921185422784794
2748010 2 17333914852425149699
3060560 45 18339643317565256630
474 4 18261115132279299961
537710 114 18271523105348421913
58051976 378 18270678667464673221
7364860 26 18127694816149601031
7832392 63 18408881875901580972
9981440 41 17542499887853393528

> <PUBCHEM_SHAPE_MULTIPOLES>
309.44
6.42
2.24
0.96
1.9
0.59
-0.15
-3.38
-0.1
-0.14
-0.26
-0.32
-0.17
-0.59

> <PUBCHEM_SHAPE_SELFOVERLAP>
658.007

> <PUBCHEM_SHAPE_VOLUME>
174.4

> <PUBCHEM_COORDINATE_TYPE>
2
5
10

$$$$
