10062693
 OpenBabel12092211553D

 27 28  0  0  1  0  0  0  0  0999 V2000
   -4.6519    1.4032   -0.1345 Cl  0  0  0  0  0  0  0  0  0  0  0  0
    5.2764    0.0421   -0.3727 O   0  0  0  0  0  0  0  0  0  0  0  0
    4.4708    0.3150    1.7291 O   0  0  0  0  0  0  0  0  0  0  0  0
   -1.0263   -2.3226   -0.5460 N   0  0  0  0  0  0  0  0  0  0  0  0
    3.1482   -1.0941   -1.2102 N   0  0  0  0  0  0  0  0  0  0  0  0
    0.6326   -1.1967    0.4063 C   0  0  0  0  0  0  0  0  0  0  0  0
    1.9626   -0.8486    0.9462 C   0  0  0  0  0  0  0  0  0  0  0  0
   -0.5212   -0.3639    0.3950 C   0  0  0  0  0  0  0  0  0  0  0  0
    2.9146   -0.1914   -0.0798 C   0  0  1  0  0  0  0  0  0  0  0  0
   -1.5477   -1.0942   -0.2078 C   0  0  0  0  0  0  0  0  0  0  0  0
    0.2906   -2.3941   -0.1788 C   0  0  0  0  0  0  0  0  0  0  0  0
   -0.7916    0.9450    0.8409 C   0  0  0  0  0  0  0  0  0  0  0  0
   -2.8363   -0.5787   -0.3876 C   0  0  0  0  0  0  0  0  0  0  0  0
   -2.0759    1.4737    0.6678 C   0  0  0  0  0  0  0  0  0  0  0  0
    4.2722    0.0911    0.5416 C   0  0  0  0  0  0  0  0  0  0  0  0
   -3.0811    0.7218    0.0626 C   0  0  0  0  0  0  0  0  0  0  0  0
    2.4367   -1.7582    1.3404 H   0  0  0  0  0  0  0  0  0  0  0  0
    1.8368   -0.1822    1.8107 H   0  0  0  0  0  0  0  0  0  0  0  0
    2.4918    0.7455   -0.4612 H   0  0  0  0  0  0  0  0  0  0  0  0
    0.8646   -3.2906   -0.3681 H   0  0  0  0  0  0  0  0  0  0  0  0
   -1.5419   -3.0639   -1.0000 H   0  0  0  0  0  0  0  0  0  0  0  0
   -0.0235    1.5447    1.3203 H   0  0  0  0  0  0  0  0  0  0  0  0
   -3.6113   -1.1739   -0.8604 H   0  0  0  0  0  0  0  0  0  0  0  0
   -2.2756    2.4845    1.0165 H   0  0  0  0  0  0  0  0  0  0  0  0
    3.7057   -0.6172   -1.9182 H   0  0  0  0  0  0  0  0  0  0  0  0
    2.2590   -1.3198   -1.6545 H   0  0  0  0  0  0  0  0  0  0  0  0
    6.1508    0.2181    0.0353 H   0  0  0  0  0  0  0  0  0  0  0  0
  1 16  1  0  0  0  0
  2 15  1  0  0  0  0
  2 27  1  0  0  0  0
  3 15  2  0  0  0  0
  4 10  1  0  0  0  0
  4 11  1  0  0  0  0
  4 21  1  0  0  0  0
  5  9  1  0  0  0  0
  5 25  1  0  0  0  0
  5 26  1  0  0  0  0
  6  7  1  0  0  0  0
  6  8  1  0  0  0  0
  6 11  2  0  0  0  0
  7  9  1  0  0  0  0
  7 17  1  0  0  0  0
  7 18  1  0  0  0  0
  8 10  2  0  0  0  0
  8 12  1  0  0  0  0
  9 15  1  0  0  0  0
  9 19  1  6  0  0  0
 10 13  1  0  0  0  0
 11 20  1  0  0  0  0
 12 14  2  0  0  0  0
 12 22  1  0  0  0  0
 13 16  2  0  0  0  0
 13 23  1  0  0  0  0
 14 16  1  0  0  0  0
 14 24  1  0  0  0  0
M  END
>  <PUBCHEM_COMPOUND_CID>
10062693

>  <PUBCHEM_CONFORMER_RMSD>
0.6

>  <PUBCHEM_CONFORMER_DIVERSEORDER>
1
17
14
15
6
5
11
16
19
12
9
13
18
7
3
2
4
8
10

>  <PUBCHEM_MMFF94_PARTIAL_CHARGES>
23
1 -0.18
10 -0.15
11 -0.3
12 -0.15
13 -0.15
14 -0.15
15 0.66
16 0.18
2 -0.65
20 0.15
21 0.27
22 0.15
23 0.15
24 0.15
25 0.36
26 0.36
27 0.5
3 -0.57
4 0.03
5 -0.99
6 -0.18
7 0.18
9 0.33

>  <PUBCHEM_EFFECTIVE_ROTOR_COUNT>
3

>  <PUBCHEM_PHARMACOPHORE_FEATURES>
9
1 2 acceptor
1 3 acceptor
1 4 cation
1 4 donor
1 5 cation
1 5 donor
3 2 3 15 anion
5 4 6 8 10 11 rings
6 8 10 12 13 14 16 rings

>  <PUBCHEM_HEAVY_ATOM_COUNT>
16

>  <PUBCHEM_ATOM_DEF_STEREO_COUNT>
1

>  <PUBCHEM_ATOM_UDEF_STEREO_COUNT>
0

>  <PUBCHEM_BOND_DEF_STEREO_COUNT>
0

>  <PUBCHEM_BOND_UDEF_STEREO_COUNT>
0

>  <PUBCHEM_ISOTOPIC_ATOM_COUNT>
0

>  <PUBCHEM_COMPONENT_COUNT>
1

>  <PUBCHEM_CACTVS_TAUTO_COUNT>
1

>  <PUBCHEM_CONFORMER_ID>
00998B6500000001

>  <PUBCHEM_MMFF94_ENERGY>
20.8722

>  <PUBCHEM_FEATURE_SELFOVERLAP>
45.82

>  <PUBCHEM_SHAPE_FINGERPRINT>
11640471 11 17897169241496700116
13380535 76 18410294670933973003
13583140 156 17168139023420613315
15775835 57 18334019405910167348
16945 1 18337673005782027651
17134986 127 18410578374618668357
18186145 218 18272381870667978737
20645476 183 18408598171668519395
21524375 3 18335423447925303731
22094290 62 18335419058584713298
231179 274 17968653805271512917
23175994 123 15647323105745291258
23402539 116 18059846273108328044
23419403 2 16323922072468417122
23557571 272 17560515230569604782
23559900 14 17988921185422784794
2748010 2 17333914852425149699
3060560 45 18339643317565256630
474 4 18261115132279299961
537710 114 18271523105348421913
58051976 378 18270678667464673221
7364860 26 18127694816149601031
7832392 63 18408881875901580972
9981440 41 17542499887853393528

>  <PUBCHEM_SHAPE_MULTIPOLES>
309.44
6.42
2.24
0.96
1.9
0.59
-0.15
-3.38
-0.1
-0.14
-0.26
-0.32
-0.17
-0.59

>  <PUBCHEM_SHAPE_SELFOVERLAP>
658.007

>  <PUBCHEM_SHAPE_VOLUME>
174.4

>  <PUBCHEM_COORDINATE_TYPE>
2
5
10

$$$$
10062693
 OpenBabel12092211553D

 27 28  0  0  1  0  0  0  0  0999 V2000
   -4.6519    1.4032   -0.1345 Cl  0  0  0  0  0  0  0  0  0  0  0  0
    1.5486   -3.0023    3.8934 O   0  0  0  0  0  0  0  0  0  0  0  0
    2.3480   -3.5646    1.8475 O   0  0  0  0  0  0  0  0  0  0  0  0
   -1.0263   -2.3226   -0.5460 N   0  0  0  0  0  0  0  0  0  0  0  0
    3.5015   -0.8246    2.8820 N   0  0  0  0  0  0  0  0  0  0  0  0
    0.6326   -1.1967    0.4063 C   0  0  0  0  0  0  0  0  0  0  0  0
    1.9626   -0.8486    0.9462 C   0  0  0  0  0  0  0  0  0  0  0  0
   -0.5212   -0.3639    0.3950 C   0  0  0  0  0  0  0  0  0  0  0  0
    2.1580   -1.2055    2.4380 C   0  0  1  0  0  0  0  0  0  0  0  0
   -1.5477   -1.0942   -0.2078 C   0  0  0  0  0  0  0  0  0  0  0  0
    0.2906   -2.3941   -0.1788 C   0  0  0  0  0  0  0  0  0  0  0  0
   -0.7916    0.9450    0.8409 C   0  0  0  0  0  0  0  0  0  0  0  0
   -2.8363   -0.5787   -0.3876 C   0  0  0  0  0  0  0  0  0  0  0  0
   -2.0759    1.4737    0.6678 C   0  0  0  0  0  0  0  0  0  0  0  0
    2.0330   -2.7037    2.6593 C   0  0  0  0  0  0  0  0  0  0  0  0
   -3.0811    0.7218    0.0626 C   0  0  0  0  0  0  0  0  0  0  0  0
    2.1307    0.2291    0.8127 H   0  0  0  0  0  0  0  0  0  0  0  0
    2.7363   -1.3455    0.3448 H   0  0  0  0  0  0  0  0  0  0  0  0
    1.4220   -0.6870    3.0637 H   0  0  0  0  0  0  0  0  0  0  0  0
    0.8646   -3.2906   -0.3681 H   0  0  0  0  0  0  0  0  0  0  0  0
   -1.5419   -3.0639   -1.0000 H   0  0  0  0  0  0  0  0  0  0  0  0
   -0.0235    1.5447    1.3203 H   0  0  0  0  0  0  0  0  0  0  0  0
   -3.6113   -1.1739   -0.8604 H   0  0  0  0  0  0  0  0  0  0  0  0
   -2.2756    2.4845    1.0165 H   0  0  0  0  0  0  0  0  0  0  0  0
    3.5876   -0.9850    3.8851 H   0  0  0  0  0  0  0  0  0  0  0  0
    3.6346    0.1764    2.7428 H   0  0  0  0  0  0  0  0  0  0  0  0
    1.4768   -3.9706    4.0330 H   0  0  0  0  0  0  0  0  0  0  0  0
  1 16  1  0  0  0  0
  2 15  1  0  0  0  0
  2 27  1  0  0  0  0
  3 15  2  0  0  0  0
  4 10  1  0  0  0  0
  4 11  1  0  0  0  0
  4 21  1  0  0  0  0
  5  9  1  0  0  0  0
  5 25  1  0  0  0  0
  5 26  1  0  0  0  0
  6  7  1  0  0  0  0
  6  8  1  0  0  0  0
  6 11  2  0  0  0  0
  7  9  1  0  0  0  0
  7 17  1  0  0  0  0
  7 18  1  0  0  0  0
  8 10  2  0  0  0  0
  8 12  1  0  0  0  0
  9 15  1  0  0  0  0
  9 19  1  1  0  0  0
 10 13  1  0  0  0  0
 11 20  1  0  0  0  0
 12 14  2  0  0  0  0
 12 22  1  0  0  0  0
 13 16  2  0  0  0  0
 13 23  1  0  0  0  0
 14 16  1  0  0  0  0
 14 24  1  0  0  0  0
M  END
>  <PUBCHEM_COMPOUND_CID>
10062693

>  <PUBCHEM_CONFORMER_RMSD>
0.6

>  <PUBCHEM_CONFORMER_DIVERSEORDER>
1
17
14
15
6
5
11
16
19
12
9
13
18
7
3
2
4
8
10

>  <PUBCHEM_MMFF94_PARTIAL_CHARGES>
23
1 -0.18
10 -0.15
11 -0.3
12 -0.15
13 -0.15
14 -0.15
15 0.66
16 0.18
2 -0.65
20 0.15
21 0.27
22 0.15
23 0.15
24 0.15
25 0.36
26 0.36
27 0.5
3 -0.57
4 0.03
5 -0.99
6 -0.18
7 0.18
9 0.33

>  <PUBCHEM_EFFECTIVE_ROTOR_COUNT>
3

>  <PUBCHEM_PHARMACOPHORE_FEATURES>
9
1 2 acceptor
1 3 acceptor
1 4 cation
1 4 donor
1 5 cation
1 5 donor
3 2 3 15 anion
5 4 6 8 10 11 rings
6 8 10 12 13 14 16 rings

>  <PUBCHEM_HEAVY_ATOM_COUNT>
16

>  <PUBCHEM_ATOM_DEF_STEREO_COUNT>
1

>  <PUBCHEM_ATOM_UDEF_STEREO_COUNT>
0

>  <PUBCHEM_BOND_DEF_STEREO_COUNT>
0

>  <PUBCHEM_BOND_UDEF_STEREO_COUNT>
0

>  <PUBCHEM_ISOTOPIC_ATOM_COUNT>
0

>  <PUBCHEM_COMPONENT_COUNT>
1

>  <PUBCHEM_CACTVS_TAUTO_COUNT>
1

>  <PUBCHEM_CONFORMER_ID>
00998B6500000001

>  <PUBCHEM_MMFF94_ENERGY>
20.8722

>  <PUBCHEM_FEATURE_SELFOVERLAP>
45.82

>  <PUBCHEM_SHAPE_FINGERPRINT>
11640471 11 17897169241496700116
13380535 76 18410294670933973003
13583140 156 17168139023420613315
15775835 57 18334019405910167348
16945 1 18337673005782027651
17134986 127 18410578374618668357
18186145 218 18272381870667978737
20645476 183 18408598171668519395
21524375 3 18335423447925303731
22094290 62 18335419058584713298
231179 274 17968653805271512917
23175994 123 15647323105745291258
23402539 116 18059846273108328044
23419403 2 16323922072468417122
23557571 272 17560515230569604782
23559900 14 17988921185422784794
2748010 2 17333914852425149699
3060560 45 18339643317565256630
474 4 18261115132279299961
537710 114 18271523105348421913
58051976 378 18270678667464673221
7364860 26 18127694816149601031
7832392 63 18408881875901580972
9981440 41 17542499887853393528

>  <PUBCHEM_SHAPE_MULTIPOLES>
309.44
6.42
2.24
0.96
1.9
0.59
-0.15
-3.38
-0.1
-0.14
-0.26
-0.32
-0.17
-0.59

>  <PUBCHEM_SHAPE_SELFOVERLAP>
658.007

>  <PUBCHEM_SHAPE_VOLUME>
174.4

>  <PUBCHEM_COORDINATE_TYPE>
2
5
10

$$$$
10062693
 OpenBabel12092211553D

 27 28  0  0  1  0  0  0  0  0999 V2000
   -4.6519    1.4032   -0.1345 Cl  0  0  0  0  0  0  0  0  0  0  0  0
    4.0031   -1.5785    3.9126 O   0  0  0  0  0  0  0  0  0  0  0  0
    4.1518    0.1978    2.5114 O   0  0  0  0  0  0  0  0  0  0  0  0
   -1.0263   -2.3226   -0.5460 N   0  0  0  0  0  0  0  0  0  0  0  0
    1.1759   -0.4987    3.2645 N   0  0  0  0  0  0  0  0  0  0  0  0
    0.6326   -1.1967    0.4063 C   0  0  0  0  0  0  0  0  0  0  0  0
    1.9626   -0.8486    0.9462 C   0  0  0  0  0  0  0  0  0  0  0  0
   -0.5212   -0.3639    0.3950 C   0  0  0  0  0  0  0  0  0  0  0  0
    2.1580   -1.2055    2.4380 C   0  0  1  0  0  0  0  0  0  0  0  0
   -1.5477   -1.0942   -0.2078 C   0  0  0  0  0  0  0  0  0  0  0  0
    0.2906   -2.3941   -0.1788 C   0  0  0  0  0  0  0  0  0  0  0  0
   -0.7916    0.9450    0.8409 C   0  0  0  0  0  0  0  0  0  0  0  0
   -2.8363   -0.5787   -0.3876 C   0  0  0  0  0  0  0  0  0  0  0  0
   -2.0759    1.4737    0.6678 C   0  0  0  0  0  0  0  0  0  0  0  0
    3.5310   -0.7733    2.9250 C   0  0  0  0  0  0  0  0  0  0  0  0
   -3.0811    0.7218    0.0626 C   0  0  0  0  0  0  0  0  0  0  0  0
    2.1307    0.2291    0.8127 H   0  0  0  0  0  0  0  0  0  0  0  0
    2.7363   -1.3455    0.3448 H   0  0  0  0  0  0  0  0  0  0  0  0
    2.0417   -2.2835    2.6005 H   0  0  0  0  0  0  0  0  0  0  0  0
    0.8646   -3.2906   -0.3681 H   0  0  0  0  0  0  0  0  0  0  0  0
   -1.5419   -3.0639   -1.0000 H   0  0  0  0  0  0  0  0  0  0  0  0
   -0.0235    1.5447    1.3203 H   0  0  0  0  0  0  0  0  0  0  0  0
   -3.6113   -1.1739   -0.8604 H   0  0  0  0  0  0  0  0  0  0  0  0
   -2.2756    2.4845    1.0165 H   0  0  0  0  0  0  0  0  0  0  0  0
    1.2588   -0.8080    4.2325 H   0  0  0  0  0  0  0  0  0  0  0  0
    0.2348   -0.7521    2.9659 H   0  0  0  0  0  0  0  0  0  0  0  0
    4.8862   -1.2906    4.2277 H   0  0  0  0  0  0  0  0  0  0  0  0
  1 16  1  0  0  0  0
  2 15  1  0  0  0  0
  2 27  1  0  0  0  0
  3 15  2  0  0  0  0
  4 10  1  0  0  0  0
  4 11  1  0  0  0  0
  4 21  1  0  0  0  0
  5  9  1  0  0  0  0
  5 25  1  0  0  0  0
  5 26  1  0  0  0  0
  6  7  1  0  0  0  0
  6  8  1  0  0  0  0
  6 11  2  0  0  0  0
  7  9  1  0  0  0  0
  7 17  1  0  0  0  0
  7 18  1  0  0  0  0
  8 10  2  0  0  0  0
  8 12  1  0  0  0  0
  9 15  1  0  0  0  0
  9 19  1  1  0  0  0
 10 13  1  0  0  0  0
 11 20  1  0  0  0  0
 12 14  2  0  0  0  0
 12 22  1  0  0  0  0
 13 16  2  0  0  0  0
 13 23  1  0  0  0  0
 14 16  1  0  0  0  0
 14 24  1  0  0  0  0
M  END
>  <PUBCHEM_COMPOUND_CID>
10062693

>  <PUBCHEM_CONFORMER_RMSD>
0.6

>  <PUBCHEM_CONFORMER_DIVERSEORDER>
1
17
14
15
6
5
11
16
19
12
9
13
18
7
3
2
4
8
10

>  <PUBCHEM_MMFF94_PARTIAL_CHARGES>
23
1 -0.18
10 -0.15
11 -0.3
12 -0.15
13 -0.15
14 -0.15
15 0.66
16 0.18
2 -0.65
20 0.15
21 0.27
22 0.15
23 0.15
24 0.15
25 0.36
26 0.36
27 0.5
3 -0.57
4 0.03
5 -0.99
6 -0.18
7 0.18
9 0.33

>  <PUBCHEM_EFFECTIVE_ROTOR_COUNT>
3

>  <PUBCHEM_PHARMACOPHORE_FEATURES>
9
1 2 acceptor
1 3 acceptor
1 4 cation
1 4 donor
1 5 cation
1 5 donor
3 2 3 15 anion
5 4 6 8 10 11 rings
6 8 10 12 13 14 16 rings

>  <PUBCHEM_HEAVY_ATOM_COUNT>
16

>  <PUBCHEM_ATOM_DEF_STEREO_COUNT>
1

>  <PUBCHEM_ATOM_UDEF_STEREO_COUNT>
0

>  <PUBCHEM_BOND_DEF_STEREO_COUNT>
0

>  <PUBCHEM_BOND_UDEF_STEREO_COUNT>
0

>  <PUBCHEM_ISOTOPIC_ATOM_COUNT>
0

>  <PUBCHEM_COMPONENT_COUNT>
1

>  <PUBCHEM_CACTVS_TAUTO_COUNT>
1

>  <PUBCHEM_CONFORMER_ID>
00998B6500000001

>  <PUBCHEM_MMFF94_ENERGY>
20.8722

>  <PUBCHEM_FEATURE_SELFOVERLAP>
45.82

>  <PUBCHEM_SHAPE_FINGERPRINT>
11640471 11 17897169241496700116
13380535 76 18410294670933973003
13583140 156 17168139023420613315
15775835 57 18334019405910167348
16945 1 18337673005782027651
17134986 127 18410578374618668357
18186145 218 18272381870667978737
20645476 183 18408598171668519395
21524375 3 18335423447925303731
22094290 62 18335419058584713298
231179 274 17968653805271512917
23175994 123 15647323105745291258
23402539 116 18059846273108328044
23419403 2 16323922072468417122
23557571 272 17560515230569604782
23559900 14 17988921185422784794
2748010 2 17333914852425149699
3060560 45 18339643317565256630
474 4 18261115132279299961
537710 114 18271523105348421913
58051976 378 18270678667464673221
7364860 26 18127694816149601031
7832392 63 18408881875901580972
9981440 41 17542499887853393528

>  <PUBCHEM_SHAPE_MULTIPOLES>
309.44
6.42
2.24
0.96
1.9
0.59
-0.15
-3.38
-0.1
-0.14
-0.26
-0.32
-0.17
-0.59

>  <PUBCHEM_SHAPE_SELFOVERLAP>
658.007

>  <PUBCHEM_SHAPE_VOLUME>
174.4

>  <PUBCHEM_COORDINATE_TYPE>
2
5
10

$$$$
10062693
 OpenBabel12092211553D

 27 28  0  0  1  0  0  0  0  0999 V2000
   -4.6519    1.4032   -0.1345 Cl  0  0  0  0  0  0  0  0  0  0  0  0
    4.5344   -1.3681    2.2278 O   0  0  0  0  0  0  0  0  0  0  0  0
    3.7388   -0.0002    3.8516 O   0  0  0  0  0  0  0  0  0  0  0  0
   -1.0263   -2.3226   -0.5460 N   0  0  0  0  0  0  0  0  0  0  0  0
    1.1759   -0.4987    3.2645 N   0  0  0  0  0  0  0  0  0  0  0  0
    0.6326   -1.1967    0.4063 C   0  0  0  0  0  0  0  0  0  0  0  0
    1.9626   -0.8486    0.9462 C   0  0  0  0  0  0  0  0  0  0  0  0
   -0.5212   -0.3639    0.3950 C   0  0  0  0  0  0  0  0  0  0  0  0
    2.1580   -1.2055    2.4380 C   0  0  1  0  0  0  0  0  0  0  0  0
   -1.5477   -1.0942   -0.2078 C   0  0  0  0  0  0  0  0  0  0  0  0
    0.2906   -2.3941   -0.1788 C   0  0  0  0  0  0  0  0  0  0  0  0
   -0.7916    0.9450    0.8409 C   0  0  0  0  0  0  0  0  0  0  0  0
   -2.8363   -0.5787   -0.3876 C   0  0  0  0  0  0  0  0  0  0  0  0
   -2.0759    1.4737    0.6678 C   0  0  0  0  0  0  0  0  0  0  0  0
    3.5310   -0.7733    2.9250 C   0  0  0  0  0  0  0  0  0  0  0  0
   -3.0811    0.7218    0.0626 C   0  0  0  0  0  0  0  0  0  0  0  0
    2.1307    0.2291    0.8127 H   0  0  0  0  0  0  0  0  0  0  0  0
    2.7363   -1.3455    0.3448 H   0  0  0  0  0  0  0  0  0  0  0  0
    2.0417   -2.2835    2.6005 H   0  0  0  0  0  0  0  0  0  0  0  0
    0.8646   -3.2906   -0.3681 H   0  0  0  0  0  0  0  0  0  0  0  0
   -1.5419   -3.0639   -1.0000 H   0  0  0  0  0  0  0  0  0  0  0  0
   -0.0235    1.5447    1.3203 H   0  0  0  0  0  0  0  0  0  0  0  0
   -3.6113   -1.1739   -0.8604 H   0  0  0  0  0  0  0  0  0  0  0  0
   -2.2756    2.4845    1.0165 H   0  0  0  0  0  0  0  0  0  0  0  0
    1.2588   -0.8080    4.2325 H   0  0  0  0  0  0  0  0  0  0  0  0
    0.2348   -0.7521    2.9659 H   0  0  0  0  0  0  0  0  0  0  0  0
    5.4180   -1.0908    2.5511 H   0  0  0  0  0  0  0  0  0  0  0  0
  1 16  1  0  0  0  0
  2 15  1  0  0  0  0
  2 27  1  0  0  0  0
  3 15  2  0  0  0  0
  4 10  1  0  0  0  0
  4 11  1  0  0  0  0
  4 21  1  0  0  0  0
  5  9  1  0  0  0  0
  5 25  1  0  0  0  0
  5 26  1  0  0  0  0
  6  7  1  0  0  0  0
  6  8  1  0  0  0  0
  6 11  2  0  0  0  0
  7  9  1  0  0  0  0
  7 17  1  0  0  0  0
  7 18  1  0  0  0  0
  8 10  2  0  0  0  0
  8 12  1  0  0  0  0
  9 15  1  0  0  0  0
  9 19  1  1  0  0  0
 10 13  1  0  0  0  0
 11 20  1  0  0  0  0
 12 14  2  0  0  0  0
 12 22  1  0  0  0  0
 13 16  2  0  0  0  0
 13 23  1  0  0  0  0
 14 16  1  0  0  0  0
 14 24  1  0  0  0  0
M  END
>  <PUBCHEM_COMPOUND_CID>
10062693

>  <PUBCHEM_CONFORMER_RMSD>
0.6

>  <PUBCHEM_CONFORMER_DIVERSEORDER>
1
17
14
15
6
5
11
16
19
12
9
13
18
7
3
2
4
8
10

>  <PUBCHEM_MMFF94_PARTIAL_CHARGES>
23
1 -0.18
10 -0.15
11 -0.3
12 -0.15
13 -0.15
14 -0.15
15 0.66
16 0.18
2 -0.65
20 0.15
21 0.27
22 0.15
23 0.15
24 0.15
25 0.36
26 0.36
27 0.5
3 -0.57
4 0.03
5 -0.99
6 -0.18
7 0.18
9 0.33

>  <PUBCHEM_EFFECTIVE_ROTOR_COUNT>
3

>  <PUBCHEM_PHARMACOPHORE_FEATURES>
9
1 2 acceptor
1 3 acceptor
1 4 cation
1 4 donor
1 5 cation
1 5 donor
3 2 3 15 anion
5 4 6 8 10 11 rings
6 8 10 12 13 14 16 rings

>  <PUBCHEM_HEAVY_ATOM_COUNT>
16

>  <PUBCHEM_ATOM_DEF_STEREO_COUNT>
1

>  <PUBCHEM_ATOM_UDEF_STEREO_COUNT>
0

>  <PUBCHEM_BOND_DEF_STEREO_COUNT>
0

>  <PUBCHEM_BOND_UDEF_STEREO_COUNT>
0

>  <PUBCHEM_ISOTOPIC_ATOM_COUNT>
0

>  <PUBCHEM_COMPONENT_COUNT>
1

>  <PUBCHEM_CACTVS_TAUTO_COUNT>
1

>  <PUBCHEM_CONFORMER_ID>
00998B6500000001

>  <PUBCHEM_MMFF94_ENERGY>
20.8722

>  <PUBCHEM_FEATURE_SELFOVERLAP>
45.82

>  <PUBCHEM_SHAPE_FINGERPRINT>
11640471 11 17897169241496700116
13380535 76 18410294670933973003
13583140 156 17168139023420613315
15775835 57 18334019405910167348
16945 1 18337673005782027651
17134986 127 18410578374618668357
18186145 218 18272381870667978737
20645476 183 18408598171668519395
21524375 3 18335423447925303731
22094290 62 18335419058584713298
231179 274 17968653805271512917
23175994 123 15647323105745291258
23402539 116 18059846273108328044
23419403 2 16323922072468417122
23557571 272 17560515230569604782
23559900 14 17988921185422784794
2748010 2 17333914852425149699
3060560 45 18339643317565256630
474 4 18261115132279299961
537710 114 18271523105348421913
58051976 378 18270678667464673221
7364860 26 18127694816149601031
7832392 63 18408881875901580972
9981440 41 17542499887853393528

>  <PUBCHEM_SHAPE_MULTIPOLES>
309.44
6.42
2.24
0.96
1.9
0.59
-0.15
-3.38
-0.1
-0.14
-0.26
-0.32
-0.17
-0.59

>  <PUBCHEM_SHAPE_SELFOVERLAP>
658.007

>  <PUBCHEM_SHAPE_VOLUME>
174.4

>  <PUBCHEM_COORDINATE_TYPE>
2
5
10

$$$$
10062693
 OpenBabel12092211553D

 27 28  0  0  1  0  0  0  0  0999 V2000
   -4.6519    1.4032   -0.1345 Cl  0  0  0  0  0  0  0  0  0  0  0  0
    2.7696   -0.4846   -2.4266 O   0  0  0  0  0  0  0  0  0  0  0  0
    2.7916    1.3235   -1.0588 O   0  0  0  0  0  0  0  0  0  0  0  0
   -1.0263   -2.3226   -0.5460 N   0  0  0  0  0  0  0  0  0  0  0  0
    4.3805   -0.5366    0.5310 N   0  0  0  0  0  0  0  0  0  0  0  0
    0.6326   -1.1967    0.4063 C   0  0  0  0  0  0  0  0  0  0  0  0
    1.9626   -0.8486    0.9462 C   0  0  0  0  0  0  0  0  0  0  0  0
   -0.5212   -0.3639    0.3950 C   0  0  0  0  0  0  0  0  0  0  0  0
    3.1050   -0.8953   -0.0949 C   0  0  1  0  0  0  0  0  0  0  0  0
   -1.5477   -1.0942   -0.2078 C   0  0  0  0  0  0  0  0  0  0  0  0
    0.2906   -2.3941   -0.1788 C   0  0  0  0  0  0  0  0  0  0  0  0
   -0.7916    0.9450    0.8409 C   0  0  0  0  0  0  0  0  0  0  0  0
   -2.8363   -0.5787   -0.3876 C   0  0  0  0  0  0  0  0  0  0  0  0
   -2.0759    1.4737    0.6678 C   0  0  0  0  0  0  0  0  0  0  0  0
    2.8666    0.1105   -1.2088 C   0  0  0  0  0  0  0  0  0  0  0  0
   -3.0811    0.7218    0.0626 C   0  0  0  0  0  0  0  0  0  0  0  0
    2.2035   -1.5343    1.7704 H   0  0  0  0  0  0  0  0  0  0  0  0
    1.9170    0.1521    1.3976 H   0  0  0  0  0  0  0  0  0  0  0  0
    3.1974   -1.8976   -0.5292 H   0  0  0  0  0  0  0  0  0  0  0  0
    0.8646   -3.2906   -0.3681 H   0  0  0  0  0  0  0  0  0  0  0  0
   -1.5419   -3.0639   -1.0000 H   0  0  0  0  0  0  0  0  0  0  0  0
   -0.0235    1.5447    1.3203 H   0  0  0  0  0  0  0  0  0  0  0  0
   -3.6113   -1.1739   -0.8604 H   0  0  0  0  0  0  0  0  0  0  0  0
   -2.2756    2.4845    1.0165 H   0  0  0  0  0  0  0  0  0  0  0  0
    5.1364   -0.6549   -0.1430 H   0  0  0  0  0  0  0  0  0  0  0  0
    4.5781   -1.1824    1.2944 H   0  0  0  0  0  0  0  0  0  0  0  0
    2.6229    0.1699   -3.1423 H   0  0  0  0  0  0  0  0  0  0  0  0
  1 16  1  0  0  0  0
  2 15  1  0  0  0  0
  2 27  1  0  0  0  0
  3 15  2  0  0  0  0
  4 10  1  0  0  0  0
  4 11  1  0  0  0  0
  4 21  1  0  0  0  0
  5  9  1  0  0  0  0
  5 25  1  0  0  0  0
  5 26  1  0  0  0  0
  6  7  1  0  0  0  0
  6  8  1  0  0  0  0
  6 11  2  0  0  0  0
  7  9  1  0  0  0  0
  7 17  1  0  0  0  0
  7 18  1  0  0  0  0
  8 10  2  0  0  0  0
  8 12  1  0  0  0  0
  9 15  1  0  0  0  0
  9 19  1  6  0  0  0
 10 13  1  0  0  0  0
 11 20  1  0  0  0  0
 12 14  2  0  0  0  0
 12 22  1  0  0  0  0
 13 16  2  0  0  0  0
 13 23  1  0  0  0  0
 14 16  1  0  0  0  0
 14 24  1  0  0  0  0
M  END
>  <PUBCHEM_COMPOUND_CID>
10062693

>  <PUBCHEM_CONFORMER_RMSD>
0.6

>  <PUBCHEM_CONFORMER_DIVERSEORDER>
1
17
14
15
6
5
11
16
19
12
9
13
18
7
3
2
4
8
10

>  <PUBCHEM_MMFF94_PARTIAL_CHARGES>
23
1 -0.18
10 -0.15
11 -0.3
12 -0.15
13 -0.15
14 -0.15
15 0.66
16 0.18
2 -0.65
20 0.15
21 0.27
22 0.15
23 0.15
24 0.15
25 0.36
26 0.36
27 0.5
3 -0.57
4 0.03
5 -0.99
6 -0.18
7 0.18
9 0.33

>  <PUBCHEM_EFFECTIVE_ROTOR_COUNT>
3

>  <PUBCHEM_PHARMACOPHORE_FEATURES>
9
1 2 acceptor
1 3 acceptor
1 4 cation
1 4 donor
1 5 cation
1 5 donor
3 2 3 15 anion
5 4 6 8 10 11 rings
6 8 10 12 13 14 16 rings

>  <PUBCHEM_HEAVY_ATOM_COUNT>
16

>  <PUBCHEM_ATOM_DEF_STEREO_COUNT>
1

>  <PUBCHEM_ATOM_UDEF_STEREO_COUNT>
0

>  <PUBCHEM_BOND_DEF_STEREO_COUNT>
0

>  <PUBCHEM_BOND_UDEF_STEREO_COUNT>
0

>  <PUBCHEM_ISOTOPIC_ATOM_COUNT>
0

>  <PUBCHEM_COMPONENT_COUNT>
1

>  <PUBCHEM_CACTVS_TAUTO_COUNT>
1

>  <PUBCHEM_CONFORMER_ID>
00998B6500000001

>  <PUBCHEM_MMFF94_ENERGY>
20.8722

>  <PUBCHEM_FEATURE_SELFOVERLAP>
45.82

>  <PUBCHEM_SHAPE_FINGERPRINT>
11640471 11 17897169241496700116
13380535 76 18410294670933973003
13583140 156 17168139023420613315
15775835 57 18334019405910167348
16945 1 18337673005782027651
17134986 127 18410578374618668357
18186145 218 18272381870667978737
20645476 183 18408598171668519395
21524375 3 18335423447925303731
22094290 62 18335419058584713298
231179 274 17968653805271512917
23175994 123 15647323105745291258
23402539 116 18059846273108328044
23419403 2 16323922072468417122
23557571 272 17560515230569604782
23559900 14 17988921185422784794
2748010 2 17333914852425149699
3060560 45 18339643317565256630
474 4 18261115132279299961
537710 114 18271523105348421913
58051976 378 18270678667464673221
7364860 26 18127694816149601031
7832392 63 18408881875901580972
9981440 41 17542499887853393528

>  <PUBCHEM_SHAPE_MULTIPOLES>
309.44
6.42
2.24
0.96
1.9
0.59
-0.15
-3.38
-0.1
-0.14
-0.26
-0.32
-0.17
-0.59

>  <PUBCHEM_SHAPE_SELFOVERLAP>
658.007

>  <PUBCHEM_SHAPE_VOLUME>
174.4

>  <PUBCHEM_COORDINATE_TYPE>
2
5
10

$$$$
10062693
 OpenBabel12092211553D

 27 28  0  0  1  0  0  0  0  0999 V2000
   -4.6519    1.4032   -0.1345 Cl  0  0  0  0  0  0  0  0  0  0  0  0
    4.1847    0.9256    1.6106 O   0  0  0  0  0  0  0  0  0  0  0  0
    5.3396   -0.3483    0.1326 O   0  0  0  0  0  0  0  0  0  0  0  0
   -1.0263   -2.3226   -0.5460 N   0  0  0  0  0  0  0  0  0  0  0  0
    3.1482   -1.0941   -1.2102 N   0  0  0  0  0  0  0  0  0  0  0  0
    0.6326   -1.1967    0.4063 C   0  0  0  0  0  0  0  0  0  0  0  0
    1.9626   -0.8486    0.9462 C   0  0  0  0  0  0  0  0  0  0  0  0
   -0.5212   -0.3639    0.3950 C   0  0  0  0  0  0  0  0  0  0  0  0
    2.9146   -0.1914   -0.0798 C   0  0  1  0  0  0  0  0  0  0  0  0
   -1.5477   -1.0942   -0.2078 C   0  0  0  0  0  0  0  0  0  0  0  0
    0.2906   -2.3941   -0.1788 C   0  0  0  0  0  0  0  0  0  0  0  0
   -0.7916    0.9450    0.8409 C   0  0  0  0  0  0  0  0  0  0  0  0
   -2.8363   -0.5787   -0.3876 C   0  0  0  0  0  0  0  0  0  0  0  0
   -2.0759    1.4737    0.6678 C   0  0  0  0  0  0  0  0  0  0  0  0
    4.2722    0.0911    0.5416 C   0  0  0  0  0  0  0  0  0  0  0  0
   -3.0811    0.7218    0.0626 C   0  0  0  0  0  0  0  0  0  0  0  0
    2.4367   -1.7582    1.3404 H   0  0  0  0  0  0  0  0  0  0  0  0
    1.8368   -0.1822    1.8107 H   0  0  0  0  0  0  0  0  0  0  0  0
    2.4918    0.7455   -0.4612 H   0  0  0  0  0  0  0  0  0  0  0  0
    0.8646   -3.2906   -0.3681 H   0  0  0  0  0  0  0  0  0  0  0  0
   -1.5419   -3.0639   -1.0000 H   0  0  0  0  0  0  0  0  0  0  0  0
   -0.0235    1.5447    1.3203 H   0  0  0  0  0  0  0  0  0  0  0  0
   -3.6113   -1.1739   -0.8604 H   0  0  0  0  0  0  0  0  0  0  0  0
   -2.2756    2.4845    1.0165 H   0  0  0  0  0  0  0  0  0  0  0  0
    3.7057   -0.6172   -1.9182 H   0  0  0  0  0  0  0  0  0  0  0  0
    2.2590   -1.3198   -1.6545 H   0  0  0  0  0  0  0  0  0  0  0  0
    5.0645    1.1098    2.0031 H   0  0  0  0  0  0  0  0  0  0  0  0
  1 16  1  0  0  0  0
  2 15  1  0  0  0  0
  2 27  1  0  0  0  0
  3 15  2  0  0  0  0
  4 10  1  0  0  0  0
  4 11  1  0  0  0  0
  4 21  1  0  0  0  0
  5  9  1  0  0  0  0
  5 25  1  0  0  0  0
  5 26  1  0  0  0  0
  6  7  1  0  0  0  0
  6  8  1  0  0  0  0
  6 11  2  0  0  0  0
  7  9  1  0  0  0  0
  7 17  1  0  0  0  0
  7 18  1  0  0  0  0
  8 10  2  0  0  0  0
  8 12  1  0  0  0  0
  9 15  1  0  0  0  0
  9 19  1  6  0  0  0
 10 13  1  0  0  0  0
 11 20  1  0  0  0  0
 12 14  2  0  0  0  0
 12 22  1  0  0  0  0
 13 16  2  0  0  0  0
 13 23  1  0  0  0  0
 14 16  1  0  0  0  0
 14 24  1  0  0  0  0
M  END
>  <PUBCHEM_COMPOUND_CID>
10062693

>  <PUBCHEM_CONFORMER_RMSD>
0.6

>  <PUBCHEM_CONFORMER_DIVERSEORDER>
1
17
14
15
6
5
11
16
19
12
9
13
18
7
3
2
4
8
10

>  <PUBCHEM_MMFF94_PARTIAL_CHARGES>
23
1 -0.18
10 -0.15
11 -0.3
12 -0.15
13 -0.15
14 -0.15
15 0.66
16 0.18
2 -0.65
20 0.15
21 0.27
22 0.15
23 0.15
24 0.15
25 0.36
26 0.36
27 0.5
3 -0.57
4 0.03
5 -0.99
6 -0.18
7 0.18
9 0.33

>  <PUBCHEM_EFFECTIVE_ROTOR_COUNT>
3

>  <PUBCHEM_PHARMACOPHORE_FEATURES>
9
1 2 acceptor
1 3 acceptor
1 4 cation
1 4 donor
1 5 cation
1 5 donor
3 2 3 15 anion
5 4 6 8 10 11 rings
6 8 10 12 13 14 16 rings

>  <PUBCHEM_HEAVY_ATOM_COUNT>
16

>  <PUBCHEM_ATOM_DEF_STEREO_COUNT>
1

>  <PUBCHEM_ATOM_UDEF_STEREO_COUNT>
0

>  <PUBCHEM_BOND_DEF_STEREO_COUNT>
0

>  <PUBCHEM_BOND_UDEF_STEREO_COUNT>
0

>  <PUBCHEM_ISOTOPIC_ATOM_COUNT>
0

>  <PUBCHEM_COMPONENT_COUNT>
1

>  <PUBCHEM_CACTVS_TAUTO_COUNT>
1

>  <PUBCHEM_CONFORMER_ID>
00998B6500000001

>  <PUBCHEM_MMFF94_ENERGY>
20.8722

>  <PUBCHEM_FEATURE_SELFOVERLAP>
45.82

>  <PUBCHEM_SHAPE_FINGERPRINT>
11640471 11 17897169241496700116
13380535 76 18410294670933973003
13583140 156 17168139023420613315
15775835 57 18334019405910167348
16945 1 18337673005782027651
17134986 127 18410578374618668357
18186145 218 18272381870667978737
20645476 183 18408598171668519395
21524375 3 18335423447925303731
22094290 62 18335419058584713298
231179 274 17968653805271512917
23175994 123 15647323105745291258
23402539 116 18059846273108328044
23419403 2 16323922072468417122
23557571 272 17560515230569604782
23559900 14 17988921185422784794
2748010 2 17333914852425149699
3060560 45 18339643317565256630
474 4 18261115132279299961
537710 114 18271523105348421913
58051976 378 18270678667464673221
7364860 26 18127694816149601031
7832392 63 18408881875901580972
9981440 41 17542499887853393528

>  <PUBCHEM_SHAPE_MULTIPOLES>
309.44
6.42
2.24
0.96
1.9
0.59
-0.15
-3.38
-0.1
-0.14
-0.26
-0.32
-0.17
-0.59

>  <PUBCHEM_SHAPE_SELFOVERLAP>
658.007

>  <PUBCHEM_SHAPE_VOLUME>
174.4

>  <PUBCHEM_COORDINATE_TYPE>
2
5
10

$$$$
10062693
 OpenBabel12092211553D

 27 28  0  0  1  0  0  0  0  0999 V2000
   -4.6519    1.4032   -0.1345 Cl  0  0  0  0  0  0  0  0  0  0  0  0
    4.8814   -1.0409    0.9823 O   0  0  0  0  0  0  0  0  0  0  0  0
    4.7727    1.2017    0.6667 O   0  0  0  0  0  0  0  0  0  0  0  0
   -1.0263   -2.3226   -0.5460 N   0  0  0  0  0  0  0  0  0  0  0  0
    3.1482   -1.0941   -1.2102 N   0  0  0  0  0  0  0  0  0  0  0  0
    0.6326   -1.1967    0.4063 C   0  0  0  0  0  0  0  0  0  0  0  0
    1.9626   -0.8486    0.9462 C   0  0  0  0  0  0  0  0  0  0  0  0
   -0.5212   -0.3639    0.3950 C   0  0  0  0  0  0  0  0  0  0  0  0
    2.9146   -0.1914   -0.0798 C   0  0  1  0  0  0  0  0  0  0  0  0
   -1.5477   -1.0942   -0.2078 C   0  0  0  0  0  0  0  0  0  0  0  0
    0.2906   -2.3941   -0.1788 C   0  0  0  0  0  0  0  0  0  0  0  0
   -0.7916    0.9450    0.8409 C   0  0  0  0  0  0  0  0  0  0  0  0
   -2.8363   -0.5787   -0.3876 C   0  0  0  0  0  0  0  0  0  0  0  0
   -2.0759    1.4737    0.6678 C   0  0  0  0  0  0  0  0  0  0  0  0
    4.2722    0.0911    0.5416 C   0  0  0  0  0  0  0  0  0  0  0  0
   -3.0811    0.7218    0.0626 C   0  0  0  0  0  0  0  0  0  0  0  0
    2.4367   -1.7582    1.3404 H   0  0  0  0  0  0  0  0  0  0  0  0
    1.8368   -0.1822    1.8107 H   0  0  0  0  0  0  0  0  0  0  0  0
    2.4918    0.7455   -0.4612 H   0  0  0  0  0  0  0  0  0  0  0  0
    0.8646   -3.2906   -0.3681 H   0  0  0  0  0  0  0  0  0  0  0  0
   -1.5419   -3.0639   -1.0000 H   0  0  0  0  0  0  0  0  0  0  0  0
   -0.0235    1.5447    1.3203 H   0  0  0  0  0  0  0  0  0  0  0  0
   -3.6113   -1.1739   -0.8604 H   0  0  0  0  0  0  0  0  0  0  0  0
   -2.2756    2.4845    1.0165 H   0  0  0  0  0  0  0  0  0  0  0  0
    3.7057   -0.6172   -1.9182 H   0  0  0  0  0  0  0  0  0  0  0  0
    2.2590   -1.3198   -1.6545 H   0  0  0  0  0  0  0  0  0  0  0  0
    5.7539   -0.8517    1.3886 H   0  0  0  0  0  0  0  0  0  0  0  0
  1 16  1  0  0  0  0
  2 15  1  0  0  0  0
  2 27  1  0  0  0  0
  3 15  2  0  0  0  0
  4 10  1  0  0  0  0
  4 11  1  0  0  0  0
  4 21  1  0  0  0  0
  5  9  1  0  0  0  0
  5 25  1  0  0  0  0
  5 26  1  0  0  0  0
  6  7  1  0  0  0  0
  6  8  1  0  0  0  0
  6 11  2  0  0  0  0
  7  9  1  0  0  0  0
  7 17  1  0  0  0  0
  7 18  1  0  0  0  0
  8 10  2  0  0  0  0
  8 12  1  0  0  0  0
  9 15  1  0  0  0  0
  9 19  1  6  0  0  0
 10 13  1  0  0  0  0
 11 20  1  0  0  0  0
 12 14  2  0  0  0  0
 12 22  1  0  0  0  0
 13 16  2  0  0  0  0
 13 23  1  0  0  0  0
 14 16  1  0  0  0  0
 14 24  1  0  0  0  0
M  END
>  <PUBCHEM_COMPOUND_CID>
10062693

>  <PUBCHEM_CONFORMER_RMSD>
0.6

>  <PUBCHEM_CONFORMER_DIVERSEORDER>
1
17
14
15
6
5
11
16
19
12
9
13
18
7
3
2
4
8
10

>  <PUBCHEM_MMFF94_PARTIAL_CHARGES>
23
1 -0.18
10 -0.15
11 -0.3
12 -0.15
13 -0.15
14 -0.15
15 0.66
16 0.18
2 -0.65
20 0.15
21 0.27
22 0.15
23 0.15
24 0.15
25 0.36
26 0.36
27 0.5
3 -0.57
4 0.03
5 -0.99
6 -0.18
7 0.18
9 0.33

>  <PUBCHEM_EFFECTIVE_ROTOR_COUNT>
3

>  <PUBCHEM_PHARMACOPHORE_FEATURES>
9
1 2 acceptor
1 3 acceptor
1 4 cation
1 4 donor
1 5 cation
1 5 donor
3 2 3 15 anion
5 4 6 8 10 11 rings
6 8 10 12 13 14 16 rings

>  <PUBCHEM_HEAVY_ATOM_COUNT>
16

>  <PUBCHEM_ATOM_DEF_STEREO_COUNT>
1

>  <PUBCHEM_ATOM_UDEF_STEREO_COUNT>
0

>  <PUBCHEM_BOND_DEF_STEREO_COUNT>
0

>  <PUBCHEM_BOND_UDEF_STEREO_COUNT>
0

>  <PUBCHEM_ISOTOPIC_ATOM_COUNT>
0

>  <PUBCHEM_COMPONENT_COUNT>
1

>  <PUBCHEM_CACTVS_TAUTO_COUNT>
1

>  <PUBCHEM_CONFORMER_ID>
00998B6500000001

>  <PUBCHEM_MMFF94_ENERGY>
20.8722

>  <PUBCHEM_FEATURE_SELFOVERLAP>
45.82

>  <PUBCHEM_SHAPE_FINGERPRINT>
11640471 11 17897169241496700116
13380535 76 18410294670933973003
13583140 156 17168139023420613315
15775835 57 18334019405910167348
16945 1 18337673005782027651
17134986 127 18410578374618668357
18186145 218 18272381870667978737
20645476 183 18408598171668519395
21524375 3 18335423447925303731
22094290 62 18335419058584713298
231179 274 17968653805271512917
23175994 123 15647323105745291258
23402539 116 18059846273108328044
23419403 2 16323922072468417122
23557571 272 17560515230569604782
23559900 14 17988921185422784794
2748010 2 17333914852425149699
3060560 45 18339643317565256630
474 4 18261115132279299961
537710 114 18271523105348421913
58051976 378 18270678667464673221
7364860 26 18127694816149601031
7832392 63 18408881875901580972
9981440 41 17542499887853393528

>  <PUBCHEM_SHAPE_MULTIPOLES>
309.44
6.42
2.24
0.96
1.9
0.59
-0.15
-3.38
-0.1
-0.14
-0.26
-0.32
-0.17
-0.59

>  <PUBCHEM_SHAPE_SELFOVERLAP>
658.007

>  <PUBCHEM_SHAPE_VOLUME>
174.4

>  <PUBCHEM_COORDINATE_TYPE>
2
5
10

$$$$
10062693
 OpenBabel12092211553D

 27 28  0  0  1  0  0  0  0  0999 V2000
   -4.6519    1.4032   -0.1345 Cl  0  0  0  0  0  0  0  0  0  0  0  0
    3.7567   -1.0108    3.9371 O   0  0  0  0  0  0  0  0  0  0  0  0
    4.8191   -1.2113    1.9441 O   0  0  0  0  0  0  0  0  0  0  0  0
   -1.0263   -2.3226   -0.5460 N   0  0  0  0  0  0  0  0  0  0  0  0
    1.5172   -1.7261    3.2150 N   0  0  0  0  0  0  0  0  0  0  0  0
    0.6326   -1.1967    0.4063 C   0  0  0  0  0  0  0  0  0  0  0  0
    1.9626   -0.8486    0.9462 C   0  0  0  0  0  0  0  0  0  0  0  0
   -0.5212   -0.3639    0.3950 C   0  0  0  0  0  0  0  0  0  0  0  0
    2.4497   -1.7735    2.0856 C   0  0  1  0  0  0  0  0  0  0  0  0
   -1.5477   -1.0942   -0.2078 C   0  0  0  0  0  0  0  0  0  0  0  0
    0.2906   -2.3941   -0.1788 C   0  0  0  0  0  0  0  0  0  0  0  0
   -0.7916    0.9450    0.8409 C   0  0  0  0  0  0  0  0  0  0  0  0
   -2.8363   -0.5787   -0.3876 C   0  0  0  0  0  0  0  0  0  0  0  0
   -2.0759    1.4737    0.6678 C   0  0  0  0  0  0  0  0  0  0  0  0
    3.8000   -1.3197    2.6144 C   0  0  0  0  0  0  0  0  0  0  0  0
   -3.0811    0.7218    0.0626 C   0  0  0  0  0  0  0  0  0  0  0  0
    1.9385    0.1868    1.3135 H   0  0  0  0  0  0  0  0  0  0  0  0
    2.6960   -0.8553    0.1281 H   0  0  0  0  0  0  0  0  0  0  0  0
    2.5291   -2.8109    1.7401 H   0  0  0  0  0  0  0  0  0  0  0  0
    0.8646   -3.2906   -0.3681 H   0  0  0  0  0  0  0  0  0  0  0  0
   -1.5419   -3.0639   -1.0000 H   0  0  0  0  0  0  0  0  0  0  0  0
   -0.0235    1.5447    1.3203 H   0  0  0  0  0  0  0  0  0  0  0  0
   -3.6113   -1.1739   -0.8604 H   0  0  0  0  0  0  0  0  0  0  0  0
   -2.2756    2.4845    1.0165 H   0  0  0  0  0  0  0  0  0  0  0  0
    1.8026   -2.4034    3.9217 H   0  0  0  0  0  0  0  0  0  0  0  0
    0.5908   -2.0152    2.9034 H   0  0  0  0  0  0  0  0  0  0  0  0
    4.6292   -0.7119    4.2711 H   0  0  0  0  0  0  0  0  0  0  0  0
  1 16  1  0  0  0  0
  2 15  1  0  0  0  0
  2 27  1  0  0  0  0
  3 15  2  0  0  0  0
  4 10  1  0  0  0  0
  4 11  1  0  0  0  0
  4 21  1  0  0  0  0
  5  9  1  0  0  0  0
  5 25  1  0  0  0  0
  5 26  1  0  0  0  0
  6  7  1  0  0  0  0
  6  8  1  0  0  0  0
  6 11  2  0  0  0  0
  7  9  1  0  0  0  0
  7 17  1  0  0  0  0
  7 18  1  0  0  0  0
  8 10  2  0  0  0  0
  8 12  1  0  0  0  0
  9 15  1  0  0  0  0
  9 19  1  6  0  0  0
 10 13  1  0  0  0  0
 11 20  1  0  0  0  0
 12 14  2  0  0  0  0
 12 22  1  0  0  0  0
 13 16  2  0  0  0  0
 13 23  1  0  0  0  0
 14 16  1  0  0  0  0
 14 24  1  0  0  0  0
M  END
>  <PUBCHEM_COMPOUND_CID>
10062693

>  <PUBCHEM_CONFORMER_RMSD>
0.6

>  <PUBCHEM_CONFORMER_DIVERSEORDER>
1
17
14
15
6
5
11
16
19
12
9
13
18
7
3
2
4
8
10

>  <PUBCHEM_MMFF94_PARTIAL_CHARGES>
23
1 -0.18
10 -0.15
11 -0.3
12 -0.15
13 -0.15
14 -0.15
15 0.66
16 0.18
2 -0.65
20 0.15
21 0.27
22 0.15
23 0.15
24 0.15
25 0.36
26 0.36
27 0.5
3 -0.57
4 0.03
5 -0.99
6 -0.18
7 0.18
9 0.33

>  <PUBCHEM_EFFECTIVE_ROTOR_COUNT>
3

>  <PUBCHEM_PHARMACOPHORE_FEATURES>
9
1 2 acceptor
1 3 acceptor
1 4 cation
1 4 donor
1 5 cation
1 5 donor
3 2 3 15 anion
5 4 6 8 10 11 rings
6 8 10 12 13 14 16 rings

>  <PUBCHEM_HEAVY_ATOM_COUNT>
16

>  <PUBCHEM_ATOM_DEF_STEREO_COUNT>
1

>  <PUBCHEM_ATOM_UDEF_STEREO_COUNT>
0

>  <PUBCHEM_BOND_DEF_STEREO_COUNT>
0

>  <PUBCHEM_BOND_UDEF_STEREO_COUNT>
0

>  <PUBCHEM_ISOTOPIC_ATOM_COUNT>
0

>  <PUBCHEM_COMPONENT_COUNT>
1

>  <PUBCHEM_CACTVS_TAUTO_COUNT>
1

>  <PUBCHEM_CONFORMER_ID>
00998B6500000001

>  <PUBCHEM_MMFF94_ENERGY>
20.8722

>  <PUBCHEM_FEATURE_SELFOVERLAP>
45.82

>  <PUBCHEM_SHAPE_FINGERPRINT>
11640471 11 17897169241496700116
13380535 76 18410294670933973003
13583140 156 17168139023420613315
15775835 57 18334019405910167348
16945 1 18337673005782027651
17134986 127 18410578374618668357
18186145 218 18272381870667978737
20645476 183 18408598171668519395
21524375 3 18335423447925303731
22094290 62 18335419058584713298
231179 274 17968653805271512917
23175994 123 15647323105745291258
23402539 116 18059846273108328044
23419403 2 16323922072468417122
23557571 272 17560515230569604782
23559900 14 17988921185422784794
2748010 2 17333914852425149699
3060560 45 18339643317565256630
474 4 18261115132279299961
537710 114 18271523105348421913
58051976 378 18270678667464673221
7364860 26 18127694816149601031
7832392 63 18408881875901580972
9981440 41 17542499887853393528

>  <PUBCHEM_SHAPE_MULTIPOLES>
309.44
6.42
2.24
0.96
1.9
0.59
-0.15
-3.38
-0.1
-0.14
-0.26
-0.32
-0.17
-0.59

>  <PUBCHEM_SHAPE_SELFOVERLAP>
658.007

>  <PUBCHEM_SHAPE_VOLUME>
174.4

>  <PUBCHEM_COORDINATE_TYPE>
2
5
10

$$$$
10062693
 OpenBabel12092211553D

 27 28  0  0  1  0  0  0  0  0999 V2000
   -4.6519    1.4032   -0.1345 Cl  0  0  0  0  0  0  0  0  0  0  0  0
    2.4327   -3.4186    1.5750 O   0  0  0  0  0  0  0  0  0  0  0  0
    1.6020   -3.2322    3.6764 O   0  0  0  0  0  0  0  0  0  0  0  0
   -1.0263   -2.3226   -0.5460 N   0  0  0  0  0  0  0  0  0  0  0  0
    3.5015   -0.8246    2.8820 N   0  0  0  0  0  0  0  0  0  0  0  0
    0.6326   -1.1967    0.4063 C   0  0  0  0  0  0  0  0  0  0  0  0
    1.9626   -0.8486    0.9462 C   0  0  0  0  0  0  0  0  0  0  0  0
   -0.5212   -0.3639    0.3950 C   0  0  0  0  0  0  0  0  0  0  0  0
    2.1580   -1.2055    2.4380 C   0  0  1  0  0  0  0  0  0  0  0  0
   -1.5477   -1.0942   -0.2078 C   0  0  0  0  0  0  0  0  0  0  0  0
    0.2906   -2.3941   -0.1788 C   0  0  0  0  0  0  0  0  0  0  0  0
   -0.7916    0.9450    0.8409 C   0  0  0  0  0  0  0  0  0  0  0  0
   -2.8363   -0.5787   -0.3876 C   0  0  0  0  0  0  0  0  0  0  0  0
   -2.0759    1.4737    0.6678 C   0  0  0  0  0  0  0  0  0  0  0  0
    2.0330   -2.7037    2.6593 C   0  0  0  0  0  0  0  0  0  0  0  0
   -3.0811    0.7218    0.0626 C   0  0  0  0  0  0  0  0  0  0  0  0
    2.1307    0.2291    0.8127 H   0  0  0  0  0  0  0  0  0  0  0  0
    2.7363   -1.3455    0.3448 H   0  0  0  0  0  0  0  0  0  0  0  0
    1.4220   -0.6870    3.0637 H   0  0  0  0  0  0  0  0  0  0  0  0
    0.8646   -3.2906   -0.3681 H   0  0  0  0  0  0  0  0  0  0  0  0
   -1.5419   -3.0639   -1.0000 H   0  0  0  0  0  0  0  0  0  0  0  0
   -0.0235    1.5447    1.3203 H   0  0  0  0  0  0  0  0  0  0  0  0
   -3.6113   -1.1739   -0.8604 H   0  0  0  0  0  0  0  0  0  0  0  0
   -2.2756    2.4845    1.0165 H   0  0  0  0  0  0  0  0  0  0  0  0
    3.5876   -0.9850    3.8851 H   0  0  0  0  0  0  0  0  0  0  0  0
    3.6346    0.1764    2.7428 H   0  0  0  0  0  0  0  0  0  0  0  0
    2.3432   -4.3844    1.7211 H   0  0  0  0  0  0  0  0  0  0  0  0
  1 16  1  0  0  0  0
  2 15  1  0  0  0  0
  2 27  1  0  0  0  0
  3 15  2  0  0  0  0
  4 10  1  0  0  0  0
  4 11  1  0  0  0  0
  4 21  1  0  0  0  0
  5  9  1  0  0  0  0
  5 25  1  0  0  0  0
  5 26  1  0  0  0  0
  6  7  1  0  0  0  0
  6  8  1  0  0  0  0
  6 11  2  0  0  0  0
  7  9  1  0  0  0  0
  7 17  1  0  0  0  0
  7 18  1  0  0  0  0
  8 10  2  0  0  0  0
  8 12  1  0  0  0  0
  9 15  1  0  0  0  0
  9 19  1  1  0  0  0
 10 13  1  0  0  0  0
 11 20  1  0  0  0  0
 12 14  2  0  0  0  0
 12 22  1  0  0  0  0
 13 16  2  0  0  0  0
 13 23  1  0  0  0  0
 14 16  1  0  0  0  0
 14 24  1  0  0  0  0
M  END
>  <PUBCHEM_COMPOUND_CID>
10062693

>  <PUBCHEM_CONFORMER_RMSD>
0.6

>  <PUBCHEM_CONFORMER_DIVERSEORDER>
1
17
14
15
6
5
11
16
19
12
9
13
18
7
3
2
4
8
10

>  <PUBCHEM_MMFF94_PARTIAL_CHARGES>
23
1 -0.18
10 -0.15
11 -0.3
12 -0.15
13 -0.15
14 -0.15
15 0.66
16 0.18
2 -0.65
20 0.15
21 0.27
22 0.15
23 0.15
24 0.15
25 0.36
26 0.36
27 0.5
3 -0.57
4 0.03
5 -0.99
6 -0.18
7 0.18
9 0.33

>  <PUBCHEM_EFFECTIVE_ROTOR_COUNT>
3

>  <PUBCHEM_PHARMACOPHORE_FEATURES>
9
1 2 acceptor
1 3 acceptor
1 4 cation
1 4 donor
1 5 cation
1 5 donor
3 2 3 15 anion
5 4 6 8 10 11 rings
6 8 10 12 13 14 16 rings

>  <PUBCHEM_HEAVY_ATOM_COUNT>
16

>  <PUBCHEM_ATOM_DEF_STEREO_COUNT>
1

>  <PUBCHEM_ATOM_UDEF_STEREO_COUNT>
0

>  <PUBCHEM_BOND_DEF_STEREO_COUNT>
0

>  <PUBCHEM_BOND_UDEF_STEREO_COUNT>
0

>  <PUBCHEM_ISOTOPIC_ATOM_COUNT>
0

>  <PUBCHEM_COMPONENT_COUNT>
1

>  <PUBCHEM_CACTVS_TAUTO_COUNT>
1

>  <PUBCHEM_CONFORMER_ID>
00998B6500000001

>  <PUBCHEM_MMFF94_ENERGY>
20.8722

>  <PUBCHEM_FEATURE_SELFOVERLAP>
45.82

>  <PUBCHEM_SHAPE_FINGERPRINT>
11640471 11 17897169241496700116
13380535 76 18410294670933973003
13583140 156 17168139023420613315
15775835 57 18334019405910167348
16945 1 18337673005782027651
17134986 127 18410578374618668357
18186145 218 18272381870667978737
20645476 183 18408598171668519395
21524375 3 18335423447925303731
22094290 62 18335419058584713298
231179 274 17968653805271512917
23175994 123 15647323105745291258
23402539 116 18059846273108328044
23419403 2 16323922072468417122
23557571 272 17560515230569604782
23559900 14 17988921185422784794
2748010 2 17333914852425149699
3060560 45 18339643317565256630
474 4 18261115132279299961
537710 114 18271523105348421913
58051976 378 18270678667464673221
7364860 26 18127694816149601031
7832392 63 18408881875901580972
9981440 41 17542499887853393528

>  <PUBCHEM_SHAPE_MULTIPOLES>
309.44
6.42
2.24
0.96
1.9
0.59
-0.15
-3.38
-0.1
-0.14
-0.26
-0.32
-0.17
-0.59

>  <PUBCHEM_SHAPE_SELFOVERLAP>
658.007

>  <PUBCHEM_SHAPE_VOLUME>
174.4

>  <PUBCHEM_COORDINATE_TYPE>
2
5
10

$$$$
10062693
 OpenBabel12092211553D

 27 28  0  0  1  0  0  0  0  0999 V2000
   -4.6519    1.4032   -0.1345 Cl  0  0  0  0  0  0  0  0  0  0  0  0
    4.5740   -0.4906    1.4519 O   0  0  0  0  0  0  0  0  0  0  0  0
    4.7031   -2.1733    2.9662 O   0  0  0  0  0  0  0  0  0  0  0  0
   -1.0263   -2.3226   -0.5460 N   0  0  0  0  0  0  0  0  0  0  0  0
    2.0314   -2.7045    2.5793 N   0  0  0  0  0  0  0  0  0  0  0  0
    0.6326   -1.1967    0.4063 C   0  0  0  0  0  0  0  0  0  0  0  0
    1.9626   -0.8486    0.9462 C   0  0  0  0  0  0  0  0  0  0  0  0
   -0.5212   -0.3639    0.3950 C   0  0  0  0  0  0  0  0  0  0  0  0
    2.7646   -2.0535    1.4903 C   0  0  1  0  0  0  0  0  0  0  0  0
   -1.5477   -1.0942   -0.2078 C   0  0  0  0  0  0  0  0  0  0  0  0
    0.2906   -2.3941   -0.1788 C   0  0  0  0  0  0  0  0  0  0  0  0
   -0.7916    0.9450    0.8409 C   0  0  0  0  0  0  0  0  0  0  0  0
   -2.8363   -0.5787   -0.3876 C   0  0  0  0  0  0  0  0  0  0  0  0
   -2.0759    1.4737    0.6678 C   0  0  0  0  0  0  0  0  0  0  0  0
    4.0963   -1.6038    2.0678 C   0  0  0  0  0  0  0  0  0  0  0  0
   -3.0811    0.7218    0.0626 C   0  0  0  0  0  0  0  0  0  0  0  0
    1.8388   -0.1104    1.7507 H   0  0  0  0  0  0  0  0  0  0  0  0
    2.5460   -0.3407    0.1658 H   0  0  0  0  0  0  0  0  0  0  0  0
    2.9461   -2.7913    0.7000 H   0  0  0  0  0  0  0  0  0  0  0  0
    0.8646   -3.2906   -0.3681 H   0  0  0  0  0  0  0  0  0  0  0  0
   -1.5419   -3.0639   -1.0000 H   0  0  0  0  0  0  0  0  0  0  0  0
   -0.0235    1.5447    1.3203 H   0  0  0  0  0  0  0  0  0  0  0  0
   -3.6113   -1.1739   -0.8604 H   0  0  0  0  0  0  0  0  0  0  0  0
   -2.2756    2.4845    1.0165 H   0  0  0  0  0  0  0  0  0  0  0  0
    2.5284   -3.5458    2.8701 H   0  0  0  0  0  0  0  0  0  0  0  0
    1.1225   -3.0160    2.2387 H   0  0  0  0  0  0  0  0  0  0  0  0
    5.4369   -0.2092    1.8240 H   0  0  0  0  0  0  0  0  0  0  0  0
  1 16  1  0  0  0  0
  2 15  1  0  0  0  0
  2 27  1  0  0  0  0
  3 15  2  0  0  0  0
  4 10  1  0  0  0  0
  4 11  1  0  0  0  0
  4 21  1  0  0  0  0
  5  9  1  0  0  0  0
  5 25  1  0  0  0  0
  5 26  1  0  0  0  0
  6  7  1  0  0  0  0
  6  8  1  0  0  0  0
  6 11  2  0  0  0  0
  7  9  1  0  0  0  0
  7 17  1  0  0  0  0
  7 18  1  0  0  0  0
  8 10  2  0  0  0  0
  8 12  1  0  0  0  0
  9 15  1  0  0  0  0
  9 19  1  6  0  0  0
 10 13  1  0  0  0  0
 11 20  1  0  0  0  0
 12 14  2  0  0  0  0
 12 22  1  0  0  0  0
 13 16  2  0  0  0  0
 13 23  1  0  0  0  0
 14 16  1  0  0  0  0
 14 24  1  0  0  0  0
M  END
>  <PUBCHEM_COMPOUND_CID>
10062693

>  <PUBCHEM_CONFORMER_RMSD>
0.6

>  <PUBCHEM_CONFORMER_DIVERSEORDER>
1
17
14
15
6
5
11
16
19
12
9
13
18
7
3
2
4
8
10

>  <PUBCHEM_MMFF94_PARTIAL_CHARGES>
23
1 -0.18
10 -0.15
11 -0.3
12 -0.15
13 -0.15
14 -0.15
15 0.66
16 0.18
2 -0.65
20 0.15
21 0.27
22 0.15
23 0.15
24 0.15
25 0.36
26 0.36
27 0.5
3 -0.57
4 0.03
5 -0.99
6 -0.18
7 0.18
9 0.33

>  <PUBCHEM_EFFECTIVE_ROTOR_COUNT>
3

>  <PUBCHEM_PHARMACOPHORE_FEATURES>
9
1 2 acceptor
1 3 acceptor
1 4 cation
1 4 donor
1 5 cation
1 5 donor
3 2 3 15 anion
5 4 6 8 10 11 rings
6 8 10 12 13 14 16 rings

>  <PUBCHEM_HEAVY_ATOM_COUNT>
16

>  <PUBCHEM_ATOM_DEF_STEREO_COUNT>
1

>  <PUBCHEM_ATOM_UDEF_STEREO_COUNT>
0

>  <PUBCHEM_BOND_DEF_STEREO_COUNT>
0

>  <PUBCHEM_BOND_UDEF_STEREO_COUNT>
0

>  <PUBCHEM_ISOTOPIC_ATOM_COUNT>
0

>  <PUBCHEM_COMPONENT_COUNT>
1

>  <PUBCHEM_CACTVS_TAUTO_COUNT>
1

>  <PUBCHEM_CONFORMER_ID>
00998B6500000001

>  <PUBCHEM_MMFF94_ENERGY>
20.8722

>  <PUBCHEM_FEATURE_SELFOVERLAP>
45.82

>  <PUBCHEM_SHAPE_FINGERPRINT>
11640471 11 17897169241496700116
13380535 76 18410294670933973003
13583140 156 17168139023420613315
15775835 57 18334019405910167348
16945 1 18337673005782027651
17134986 127 18410578374618668357
18186145 218 18272381870667978737
20645476 183 18408598171668519395
21524375 3 18335423447925303731
22094290 62 18335419058584713298
231179 274 17968653805271512917
23175994 123 15647323105745291258
23402539 116 18059846273108328044
23419403 2 16323922072468417122
23557571 272 17560515230569604782
23559900 14 17988921185422784794
2748010 2 17333914852425149699
3060560 45 18339643317565256630
474 4 18261115132279299961
537710 114 18271523105348421913
58051976 378 18270678667464673221
7364860 26 18127694816149601031
7832392 63 18408881875901580972
9981440 41 17542499887853393528

>  <PUBCHEM_SHAPE_MULTIPOLES>
309.44
6.42
2.24
0.96
1.9
0.59
-0.15
-3.38
-0.1
-0.14
-0.26
-0.32
-0.17
-0.59

>  <PUBCHEM_SHAPE_SELFOVERLAP>
658.007

>  <PUBCHEM_SHAPE_VOLUME>
174.4

>  <PUBCHEM_COORDINATE_TYPE>
2
5
10

$$$$
10062693
 OpenBabel12092211553D

 27 28  0  0  1  0  0  0  0  0999 V2000
   -4.6519    1.4032   -0.1345 Cl  0  0  0  0  0  0  0  0  0  0  0  0
    3.4214    1.3207   -0.9360 O   0  0  0  0  0  0  0  0  0  0  0  0
    2.2312   -0.1090   -2.2323 O   0  0  0  0  0  0  0  0  0  0  0  0
   -1.0263   -2.3226   -0.5460 N   0  0  0  0  0  0  0  0  0  0  0  0
    4.3805   -0.5366    0.5310 N   0  0  0  0  0  0  0  0  0  0  0  0
    0.6326   -1.1967    0.4063 C   0  0  0  0  0  0  0  0  0  0  0  0
    1.9626   -0.8486    0.9462 C   0  0  0  0  0  0  0  0  0  0  0  0
   -0.5212   -0.3639    0.3950 C   0  0  0  0  0  0  0  0  0  0  0  0
    3.1050   -0.8953   -0.0949 C   0  0  1  0  0  0  0  0  0  0  0  0
   -1.5477   -1.0942   -0.2078 C   0  0  0  0  0  0  0  0  0  0  0  0
    0.2906   -2.3941   -0.1788 C   0  0  0  0  0  0  0  0  0  0  0  0
   -0.7916    0.9450    0.8409 C   0  0  0  0  0  0  0  0  0  0  0  0
   -2.8363   -0.5787   -0.3876 C   0  0  0  0  0  0  0  0  0  0  0  0
   -2.0759    1.4737    0.6678 C   0  0  0  0  0  0  0  0  0  0  0  0
    2.8666    0.1105   -1.2088 C   0  0  0  0  0  0  0  0  0  0  0  0
   -3.0811    0.7218    0.0626 C   0  0  0  0  0  0  0  0  0  0  0  0
    2.2035   -1.5343    1.7704 H   0  0  0  0  0  0  0  0  0  0  0  0
    1.9170    0.1521    1.3976 H   0  0  0  0  0  0  0  0  0  0  0  0
    3.1974   -1.8976   -0.5292 H   0  0  0  0  0  0  0  0  0  0  0  0
    0.8646   -3.2906   -0.3681 H   0  0  0  0  0  0  0  0  0  0  0  0
   -1.5419   -3.0639   -1.0000 H   0  0  0  0  0  0  0  0  0  0  0  0
   -0.0235    1.5447    1.3203 H   0  0  0  0  0  0  0  0  0  0  0  0
   -3.6113   -1.1739   -0.8604 H   0  0  0  0  0  0  0  0  0  0  0  0
   -2.2756    2.4845    1.0165 H   0  0  0  0  0  0  0  0  0  0  0  0
    5.1364   -0.6549   -0.1430 H   0  0  0  0  0  0  0  0  0  0  0  0
    4.5781   -1.1824    1.2944 H   0  0  0  0  0  0  0  0  0  0  0  0
    3.2583    1.9676   -1.6551 H   0  0  0  0  0  0  0  0  0  0  0  0
  1 16  1  0  0  0  0
  2 15  1  0  0  0  0
  2 27  1  0  0  0  0
  3 15  2  0  0  0  0
  4 10  1  0  0  0  0
  4 11  1  0  0  0  0
  4 21  1  0  0  0  0
  5  9  1  0  0  0  0
  5 25  1  0  0  0  0
  5 26  1  0  0  0  0
  6  7  1  0  0  0  0
  6  8  1  0  0  0  0
  6 11  2  0  0  0  0
  7  9  1  0  0  0  0
  7 17  1  0  0  0  0
  7 18  1  0  0  0  0
  8 10  2  0  0  0  0
  8 12  1  0  0  0  0
  9 15  1  0  0  0  0
  9 19  1  6  0  0  0
 10 13  1  0  0  0  0
 11 20  1  0  0  0  0
 12 14  2  0  0  0  0
 12 22  1  0  0  0  0
 13 16  2  0  0  0  0
 13 23  1  0  0  0  0
 14 16  1  0  0  0  0
 14 24  1  0  0  0  0
M  END
>  <PUBCHEM_COMPOUND_CID>
10062693

>  <PUBCHEM_CONFORMER_RMSD>
0.6

>  <PUBCHEM_CONFORMER_DIVERSEORDER>
1
17
14
15
6
5
11
16
19
12
9
13
18
7
3
2
4
8
10

>  <PUBCHEM_MMFF94_PARTIAL_CHARGES>
23
1 -0.18
10 -0.15
11 -0.3
12 -0.15
13 -0.15
14 -0.15
15 0.66
16 0.18
2 -0.65
20 0.15
21 0.27
22 0.15
23 0.15
24 0.15
25 0.36
26 0.36
27 0.5
3 -0.57
4 0.03
5 -0.99
6 -0.18
7 0.18
9 0.33

>  <PUBCHEM_EFFECTIVE_ROTOR_COUNT>
3

>  <PUBCHEM_PHARMACOPHORE_FEATURES>
9
1 2 acceptor
1 3 acceptor
1 4 cation
1 4 donor
1 5 cation
1 5 donor
3 2 3 15 anion
5 4 6 8 10 11 rings
6 8 10 12 13 14 16 rings

>  <PUBCHEM_HEAVY_ATOM_COUNT>
16

>  <PUBCHEM_ATOM_DEF_STEREO_COUNT>
1

>  <PUBCHEM_ATOM_UDEF_STEREO_COUNT>
0

>  <PUBCHEM_BOND_DEF_STEREO_COUNT>
0

>  <PUBCHEM_BOND_UDEF_STEREO_COUNT>
0

>  <PUBCHEM_ISOTOPIC_ATOM_COUNT>
0

>  <PUBCHEM_COMPONENT_COUNT>
1

>  <PUBCHEM_CACTVS_TAUTO_COUNT>
1

>  <PUBCHEM_CONFORMER_ID>
00998B6500000001

>  <PUBCHEM_MMFF94_ENERGY>
20.8722

>  <PUBCHEM_FEATURE_SELFOVERLAP>
45.82

>  <PUBCHEM_SHAPE_FINGERPRINT>
11640471 11 17897169241496700116
13380535 76 18410294670933973003
13583140 156 17168139023420613315
15775835 57 18334019405910167348
16945 1 18337673005782027651
17134986 127 18410578374618668357
18186145 218 18272381870667978737
20645476 183 18408598171668519395
21524375 3 18335423447925303731
22094290 62 18335419058584713298
231179 274 17968653805271512917
23175994 123 15647323105745291258
23402539 116 18059846273108328044
23419403 2 16323922072468417122
23557571 272 17560515230569604782
23559900 14 17988921185422784794
2748010 2 17333914852425149699
3060560 45 18339643317565256630
474 4 18261115132279299961
537710 114 18271523105348421913
58051976 378 18270678667464673221
7364860 26 18127694816149601031
7832392 63 18408881875901580972
9981440 41 17542499887853393528

>  <PUBCHEM_SHAPE_MULTIPOLES>
309.44
6.42
2.24
0.96
1.9
0.59
-0.15
-3.38
-0.1
-0.14
-0.26
-0.32
-0.17
-0.59

>  <PUBCHEM_SHAPE_SELFOVERLAP>
658.007

>  <PUBCHEM_SHAPE_VOLUME>
174.4

>  <PUBCHEM_COORDINATE_TYPE>
2
5
10

$$$$
10062693
 OpenBabel12092211553D

 27 28  0  0  1  0  0  0  0  0999 V2000
   -4.6519    1.4032   -0.1345 Cl  0  0  0  0  0  0  0  0  0  0  0  0
    5.1521   -2.1729    1.4289 O   0  0  0  0  0  0  0  0  0  0  0  0
    4.2316   -0.8386    3.0142 O   0  0  0  0  0  0  0  0  0  0  0  0
   -1.0263   -2.3226   -0.5460 N   0  0  0  0  0  0  0  0  0  0  0  0
    2.0314   -2.7045    2.5793 N   0  0  0  0  0  0  0  0  0  0  0  0
    0.6326   -1.1967    0.4063 C   0  0  0  0  0  0  0  0  0  0  0  0
    1.9626   -0.8486    0.9462 C   0  0  0  0  0  0  0  0  0  0  0  0
   -0.5212   -0.3639    0.3950 C   0  0  0  0  0  0  0  0  0  0  0  0
    2.7646   -2.0535    1.4903 C   0  0  1  0  0  0  0  0  0  0  0  0
   -1.5477   -1.0942   -0.2078 C   0  0  0  0  0  0  0  0  0  0  0  0
    0.2906   -2.3941   -0.1788 C   0  0  0  0  0  0  0  0  0  0  0  0
   -0.7916    0.9450    0.8409 C   0  0  0  0  0  0  0  0  0  0  0  0
   -2.8363   -0.5787   -0.3876 C   0  0  0  0  0  0  0  0  0  0  0  0
   -2.0759    1.4737    0.6678 C   0  0  0  0  0  0  0  0  0  0  0  0
    4.0963   -1.6038    2.0678 C   0  0  0  0  0  0  0  0  0  0  0  0
   -3.0811    0.7218    0.0626 C   0  0  0  0  0  0  0  0  0  0  0  0
    1.8388   -0.1104    1.7507 H   0  0  0  0  0  0  0  0  0  0  0  0
    2.5460   -0.3407    0.1658 H   0  0  0  0  0  0  0  0  0  0  0  0
    2.9461   -2.7913    0.7000 H   0  0  0  0  0  0  0  0  0  0  0  0
    0.8646   -3.2906   -0.3681 H   0  0  0  0  0  0  0  0  0  0  0  0
   -1.5419   -3.0639   -1.0000 H   0  0  0  0  0  0  0  0  0  0  0  0
   -0.0235    1.5447    1.3203 H   0  0  0  0  0  0  0  0  0  0  0  0
   -3.6113   -1.1739   -0.8604 H   0  0  0  0  0  0  0  0  0  0  0  0
   -2.2756    2.4845    1.0165 H   0  0  0  0  0  0  0  0  0  0  0  0
    2.5284   -3.5458    2.8701 H   0  0  0  0  0  0  0  0  0  0  0  0
    1.1225   -3.0160    2.2387 H   0  0  0  0  0  0  0  0  0  0  0  0
    6.0085   -1.8845    1.8104 H   0  0  0  0  0  0  0  0  0  0  0  0
  1 16  1  0  0  0  0
  2 15  1  0  0  0  0
  2 27  1  0  0  0  0
  3 15  2  0  0  0  0
  4 10  1  0  0  0  0
  4 11  1  0  0  0  0
  4 21  1  0  0  0  0
  5  9  1  0  0  0  0
  5 25  1  0  0  0  0
  5 26  1  0  0  0  0
  6  7  1  0  0  0  0
  6  8  1  0  0  0  0
  6 11  2  0  0  0  0
  7  9  1  0  0  0  0
  7 17  1  0  0  0  0
  7 18  1  0  0  0  0
  8 10  2  0  0  0  0
  8 12  1  0  0  0  0
  9 15  1  0  0  0  0
  9 19  1  6  0  0  0
 10 13  1  0  0  0  0
 11 20  1  0  0  0  0
 12 14  2  0  0  0  0
 12 22  1  0  0  0  0
 13 16  2  0  0  0  0
 13 23  1  0  0  0  0
 14 16  1  0  0  0  0
 14 24  1  0  0  0  0
M  END
>  <PUBCHEM_COMPOUND_CID>
10062693

>  <PUBCHEM_CONFORMER_RMSD>
0.6

>  <PUBCHEM_CONFORMER_DIVERSEORDER>
1
17
14
15
6
5
11
16
19
12
9
13
18
7
3
2
4
8
10

>  <PUBCHEM_MMFF94_PARTIAL_CHARGES>
23
1 -0.18
10 -0.15
11 -0.3
12 -0.15
13 -0.15
14 -0.15
15 0.66
16 0.18
2 -0.65
20 0.15
21 0.27
22 0.15
23 0.15
24 0.15
25 0.36
26 0.36
27 0.5
3 -0.57
4 0.03
5 -0.99
6 -0.18
7 0.18
9 0.33

>  <PUBCHEM_EFFECTIVE_ROTOR_COUNT>
3

>  <PUBCHEM_PHARMACOPHORE_FEATURES>
9
1 2 acceptor
1 3 acceptor
1 4 cation
1 4 donor
1 5 cation
1 5 donor
3 2 3 15 anion
5 4 6 8 10 11 rings
6 8 10 12 13 14 16 rings

>  <PUBCHEM_HEAVY_ATOM_COUNT>
16

>  <PUBCHEM_ATOM_DEF_STEREO_COUNT>
1

>  <PUBCHEM_ATOM_UDEF_STEREO_COUNT>
0

>  <PUBCHEM_BOND_DEF_STEREO_COUNT>
0

>  <PUBCHEM_BOND_UDEF_STEREO_COUNT>
0

>  <PUBCHEM_ISOTOPIC_ATOM_COUNT>
0

>  <PUBCHEM_COMPONENT_COUNT>
1

>  <PUBCHEM_CACTVS_TAUTO_COUNT>
1

>  <PUBCHEM_CONFORMER_ID>
00998B6500000001

>  <PUBCHEM_MMFF94_ENERGY>
20.8722

>  <PUBCHEM_FEATURE_SELFOVERLAP>
45.82

>  <PUBCHEM_SHAPE_FINGERPRINT>
11640471 11 17897169241496700116
13380535 76 18410294670933973003
13583140 156 17168139023420613315
15775835 57 18334019405910167348
16945 1 18337673005782027651
17134986 127 18410578374618668357
18186145 218 18272381870667978737
20645476 183 18408598171668519395
21524375 3 18335423447925303731
22094290 62 18335419058584713298
231179 274 17968653805271512917
23175994 123 15647323105745291258
23402539 116 18059846273108328044
23419403 2 16323922072468417122
23557571 272 17560515230569604782
23559900 14 17988921185422784794
2748010 2 17333914852425149699
3060560 45 18339643317565256630
474 4 18261115132279299961
537710 114 18271523105348421913
58051976 378 18270678667464673221
7364860 26 18127694816149601031
7832392 63 18408881875901580972
9981440 41 17542499887853393528

>  <PUBCHEM_SHAPE_MULTIPOLES>
309.44
6.42
2.24
0.96
1.9
0.59
-0.15
-3.38
-0.1
-0.14
-0.26
-0.32
-0.17
-0.59

>  <PUBCHEM_SHAPE_SELFOVERLAP>
658.007

>  <PUBCHEM_SHAPE_VOLUME>
174.4

>  <PUBCHEM_COORDINATE_TYPE>
2
5
10

$$$$
10062693
 OpenBabel12092211553D

 27 28  0  0  1  0  0  0  0  0999 V2000
   -4.6519    1.4032   -0.1345 Cl  0  0  0  0  0  0  0  0  0  0  0  0
    3.0930   -1.2318   -1.4614 O   0  0  0  0  0  0  0  0  0  0  0  0
    3.5778   -3.4126   -1.0744 O   0  0  0  0  0  0  0  0  0  0  0  0
   -1.0263   -2.3226   -0.5460 N   0  0  0  0  0  0  0  0  0  0  0  0
    4.3001   -1.5345    1.3724 N   0  0  0  0  0  0  0  0  0  0  0  0
    0.6326   -1.1967    0.4063 C   0  0  0  0  0  0  0  0  0  0  0  0
    1.9626   -0.8486    0.9462 C   0  0  0  0  0  0  0  0  0  0  0  0
   -0.5212   -0.3639    0.3950 C   0  0  0  0  0  0  0  0  0  0  0  0
    3.0184   -1.9703    0.8117 C   0  0  1  0  0  0  0  0  0  0  0  0
   -1.5477   -1.0942   -0.2078 C   0  0  0  0  0  0  0  0  0  0  0  0
    0.2906   -2.3941   -0.1788 C   0  0  0  0  0  0  0  0  0  0  0  0
   -0.7916    0.9450    0.8409 C   0  0  0  0  0  0  0  0  0  0  0  0
   -2.8363   -0.5787   -0.3876 C   0  0  0  0  0  0  0  0  0  0  0  0
   -2.0759    1.4737    0.6678 C   0  0  0  0  0  0  0  0  0  0  0  0
    3.2717   -2.3060   -0.6486 C   0  0  0  0  0  0  0  0  0  0  0  0
   -3.0811    0.7218    0.0626 C   0  0  0  0  0  0  0  0  0  0  0  0
    1.8583   -0.5829    2.0073 H   0  0  0  0  0  0  0  0  0  0  0  0
    2.3264    0.0606    0.4480 H   0  0  0  0  0  0  0  0  0  0  0  0
    2.6955   -2.8762    1.3381 H   0  0  0  0  0  0  0  0  0  0  0  0
    0.8646   -3.2906   -0.3681 H   0  0  0  0  0  0  0  0  0  0  0  0
   -1.5419   -3.0639   -1.0000 H   0  0  0  0  0  0  0  0  0  0  0  0
   -0.0235    1.5447    1.3203 H   0  0  0  0  0  0  0  0  0  0  0  0
   -3.6113   -1.1739   -0.8604 H   0  0  0  0  0  0  0  0  0  0  0  0
   -2.2756    2.4845    1.0165 H   0  0  0  0  0  0  0  0  0  0  0  0
    4.9611   -2.3106    1.3562 H   0  0  0  0  0  0  0  0  0  0  0  0
    4.1759   -1.2887    2.3538 H   0  0  0  0  0  0  0  0  0  0  0  0
    3.2510   -1.4561   -2.4032 H   0  0  0  0  0  0  0  0  0  0  0  0
  1 16  1  0  0  0  0
  2 15  1  0  0  0  0
  2 27  1  0  0  0  0
  3 15  2  0  0  0  0
  4 10  1  0  0  0  0
  4 11  1  0  0  0  0
  4 21  1  0  0  0  0
  5  9  1  0  0  0  0
  5 25  1  0  0  0  0
  5 26  1  0  0  0  0
  6  7  1  0  0  0  0
  6  8  1  0  0  0  0
  6 11  2  0  0  0  0
  7  9  1  0  0  0  0
  7 17  1  0  0  0  0
  7 18  1  0  0  0  0
  8 10  2  0  0  0  0
  8 12  1  0  0  0  0
  9 15  1  0  0  0  0
  9 19  1  1  0  0  0
 10 13  1  0  0  0  0
 11 20  1  0  0  0  0
 12 14  2  0  0  0  0
 12 22  1  0  0  0  0
 13 16  2  0  0  0  0
 13 23  1  0  0  0  0
 14 16  1  0  0  0  0
 14 24  1  0  0  0  0
M  END
>  <PUBCHEM_COMPOUND_CID>
10062693

>  <PUBCHEM_CONFORMER_RMSD>
0.6

>  <PUBCHEM_CONFORMER_DIVERSEORDER>
1
17
14
15
6
5
11
16
19
12
9
13
18
7
3
2
4
8
10

>  <PUBCHEM_MMFF94_PARTIAL_CHARGES>
23
1 -0.18
10 -0.15
11 -0.3
12 -0.15
13 -0.15
14 -0.15
15 0.66
16 0.18
2 -0.65
20 0.15
21 0.27
22 0.15
23 0.15
24 0.15
25 0.36
26 0.36
27 0.5
3 -0.57
4 0.03
5 -0.99
6 -0.18
7 0.18
9 0.33

>  <PUBCHEM_EFFECTIVE_ROTOR_COUNT>
3

>  <PUBCHEM_PHARMACOPHORE_FEATURES>
9
1 2 acceptor
1 3 acceptor
1 4 cation
1 4 donor
1 5 cation
1 5 donor
3 2 3 15 anion
5 4 6 8 10 11 rings
6 8 10 12 13 14 16 rings

>  <PUBCHEM_HEAVY_ATOM_COUNT>
16

>  <PUBCHEM_ATOM_DEF_STEREO_COUNT>
1

>  <PUBCHEM_ATOM_UDEF_STEREO_COUNT>
0

>  <PUBCHEM_BOND_DEF_STEREO_COUNT>
0

>  <PUBCHEM_BOND_UDEF_STEREO_COUNT>
0

>  <PUBCHEM_ISOTOPIC_ATOM_COUNT>
0

>  <PUBCHEM_COMPONENT_COUNT>
1

>  <PUBCHEM_CACTVS_TAUTO_COUNT>
1

>  <PUBCHEM_CONFORMER_ID>
00998B6500000001

>  <PUBCHEM_MMFF94_ENERGY>
20.8722

>  <PUBCHEM_FEATURE_SELFOVERLAP>
45.82

>  <PUBCHEM_SHAPE_FINGERPRINT>
11640471 11 17897169241496700116
13380535 76 18410294670933973003
13583140 156 17168139023420613315
15775835 57 18334019405910167348
16945 1 18337673005782027651
17134986 127 18410578374618668357
18186145 218 18272381870667978737
20645476 183 18408598171668519395
21524375 3 18335423447925303731
22094290 62 18335419058584713298
231179 274 17968653805271512917
23175994 123 15647323105745291258
23402539 116 18059846273108328044
23419403 2 16323922072468417122
23557571 272 17560515230569604782
23559900 14 17988921185422784794
2748010 2 17333914852425149699
3060560 45 18339643317565256630
474 4 18261115132279299961
537710 114 18271523105348421913
58051976 378 18270678667464673221
7364860 26 18127694816149601031
7832392 63 18408881875901580972
9981440 41 17542499887853393528

>  <PUBCHEM_SHAPE_MULTIPOLES>
309.44
6.42
2.24
0.96
1.9
0.59
-0.15
-3.38
-0.1
-0.14
-0.26
-0.32
-0.17
-0.59

>  <PUBCHEM_SHAPE_SELFOVERLAP>
658.007

>  <PUBCHEM_SHAPE_VOLUME>
174.4

>  <PUBCHEM_COORDINATE_TYPE>
2
5
10

$$$$
10062693
 OpenBabel12092211553D

 27 28  0  0  1  0  0  0  0  0999 V2000
   -4.6519    1.4032   -0.1345 Cl  0  0  0  0  0  0  0  0  0  0  0  0
    2.4628   -2.0892    4.1713 O   0  0  0  0  0  0  0  0  0  0  0  0
    0.4325   -2.2542    3.1756 O   0  0  0  0  0  0  0  0  0  0  0  0
   -1.0263   -2.3226   -0.5460 N   0  0  0  0  0  0  0  0  0  0  0  0
    3.3248   -0.1712    2.8959 N   0  0  0  0  0  0  0  0  0  0  0  0
    0.6326   -1.1967    0.4063 C   0  0  0  0  0  0  0  0  0  0  0  0
    1.9626   -0.8486    0.9462 C   0  0  0  0  0  0  0  0  0  0  0  0
   -0.5212   -0.3639    0.3950 C   0  0  0  0  0  0  0  0  0  0  0  0
    1.9676   -0.5016    2.4531 C   0  0  1  0  0  0  0  0  0  0  0  0
   -1.5477   -1.0942   -0.2078 C   0  0  0  0  0  0  0  0  0  0  0  0
    0.2906   -2.3941   -0.1788 C   0  0  0  0  0  0  0  0  0  0  0  0
   -0.7916    0.9450    0.8409 C   0  0  0  0  0  0  0  0  0  0  0  0
   -2.8363   -0.5787   -0.3876 C   0  0  0  0  0  0  0  0  0  0  0  0
   -2.0759    1.4737    0.6678 C   0  0  0  0  0  0  0  0  0  0  0  0
    1.5131   -1.6887    3.2857 C   0  0  0  0  0  0  0  0  0  0  0  0
   -3.0811    0.7218    0.0626 C   0  0  0  0  0  0  0  0  0  0  0  0
    2.3639    0.0051    0.3827 H   0  0  0  0  0  0  0  0  0  0  0  0
    2.6561   -1.6797    0.7578 H   0  0  0  0  0  0  0  0  0  0  0  0
    1.3137    0.3538    2.6594 H   0  0  0  0  0  0  0  0  0  0  0  0
    0.8646   -3.2906   -0.3681 H   0  0  0  0  0  0  0  0  0  0  0  0
   -1.5419   -3.0639   -1.0000 H   0  0  0  0  0  0  0  0  0  0  0  0
   -0.0235    1.5447    1.3203 H   0  0  0  0  0  0  0  0  0  0  0  0
   -3.6113   -1.1739   -0.8604 H   0  0  0  0  0  0  0  0  0  0  0  0
   -2.2756    2.4845    1.0165 H   0  0  0  0  0  0  0  0  0  0  0  0
    3.3009    0.1386    3.8670 H   0  0  0  0  0  0  0  0  0  0  0  0
    3.6762    0.6183    2.3553 H   0  0  0  0  0  0  0  0  0  0  0  0
    2.1666   -2.8599    4.7008 H   0  0  0  0  0  0  0  0  0  0  0  0
  1 16  1  0  0  0  0
  2 15  1  0  0  0  0
  2 27  1  0  0  0  0
  3 15  2  0  0  0  0
  4 10  1  0  0  0  0
  4 11  1  0  0  0  0
  4 21  1  0  0  0  0
  5  9  1  0  0  0  0
  5 25  1  0  0  0  0
  5 26  1  0  0  0  0
  6  7  1  0  0  0  0
  6  8  1  0  0  0  0
  6 11  2  0  0  0  0
  7  9  1  0  0  0  0
  7 17  1  0  0  0  0
  7 18  1  0  0  0  0
  8 10  2  0  0  0  0
  8 12  1  0  0  0  0
  9 15  1  0  0  0  0
  9 19  1  1  0  0  0
 10 13  1  0  0  0  0
 11 20  1  0  0  0  0
 12 14  2  0  0  0  0
 12 22  1  0  0  0  0
 13 16  2  0  0  0  0
 13 23  1  0  0  0  0
 14 16  1  0  0  0  0
 14 24  1  0  0  0  0
M  END
>  <PUBCHEM_COMPOUND_CID>
10062693

>  <PUBCHEM_CONFORMER_RMSD>
0.6

>  <PUBCHEM_CONFORMER_DIVERSEORDER>
1
17
14
15
6
5
11
16
19
12
9
13
18
7
3
2
4
8
10

>  <PUBCHEM_MMFF94_PARTIAL_CHARGES>
23
1 -0.18
10 -0.15
11 -0.3
12 -0.15
13 -0.15
14 -0.15
15 0.66
16 0.18
2 -0.65
20 0.15
21 0.27
22 0.15
23 0.15
24 0.15
25 0.36
26 0.36
27 0.5
3 -0.57
4 0.03
5 -0.99
6 -0.18
7 0.18
9 0.33

>  <PUBCHEM_EFFECTIVE_ROTOR_COUNT>
3

>  <PUBCHEM_PHARMACOPHORE_FEATURES>
9
1 2 acceptor
1 3 acceptor
1 4 cation
1 4 donor
1 5 cation
1 5 donor
3 2 3 15 anion
5 4 6 8 10 11 rings
6 8 10 12 13 14 16 rings

>  <PUBCHEM_HEAVY_ATOM_COUNT>
16

>  <PUBCHEM_ATOM_DEF_STEREO_COUNT>
1

>  <PUBCHEM_ATOM_UDEF_STEREO_COUNT>
0

>  <PUBCHEM_BOND_DEF_STEREO_COUNT>
0

>  <PUBCHEM_BOND_UDEF_STEREO_COUNT>
0

>  <PUBCHEM_ISOTOPIC_ATOM_COUNT>
0

>  <PUBCHEM_COMPONENT_COUNT>
1

>  <PUBCHEM_CACTVS_TAUTO_COUNT>
1

>  <PUBCHEM_CONFORMER_ID>
00998B6500000001

>  <PUBCHEM_MMFF94_ENERGY>
20.8722

>  <PUBCHEM_FEATURE_SELFOVERLAP>
45.82

>  <PUBCHEM_SHAPE_FINGERPRINT>
11640471 11 17897169241496700116
13380535 76 18410294670933973003
13583140 156 17168139023420613315
15775835 57 18334019405910167348
16945 1 18337673005782027651
17134986 127 18410578374618668357
18186145 218 18272381870667978737
20645476 183 18408598171668519395
21524375 3 18335423447925303731
22094290 62 18335419058584713298
231179 274 17968653805271512917
23175994 123 15647323105745291258
23402539 116 18059846273108328044
23419403 2 16323922072468417122
23557571 272 17560515230569604782
23559900 14 17988921185422784794
2748010 2 17333914852425149699
3060560 45 18339643317565256630
474 4 18261115132279299961
537710 114 18271523105348421913
58051976 378 18270678667464673221
7364860 26 18127694816149601031
7832392 63 18408881875901580972
9981440 41 17542499887853393528

>  <PUBCHEM_SHAPE_MULTIPOLES>
309.44
6.42
2.24
0.96
1.9
0.59
-0.15
-3.38
-0.1
-0.14
-0.26
-0.32
-0.17
-0.59

>  <PUBCHEM_SHAPE_SELFOVERLAP>
658.007

>  <PUBCHEM_SHAPE_VOLUME>
174.4

>  <PUBCHEM_COORDINATE_TYPE>
2
5
10

$$$$
10062693
 OpenBabel12092211553D

 27 28  0  0  1  0  0  0  0  0999 V2000
   -4.6519    1.4032   -0.1345 Cl  0  0  0  0  0  0  0  0  0  0  0  0
    0.3539   -1.4029    3.9950 O   0  0  0  0  0  0  0  0  0  0  0  0
    0.9441    0.6947    3.3686 O   0  0  0  0  0  0  0  0  0  0  0  0
   -1.0263   -2.3226   -0.5460 N   0  0  0  0  0  0  0  0  0  0  0  0
    1.9899   -2.6465    2.6440 N   0  0  0  0  0  0  0  0  0  0  0  0
    0.6326   -1.1967    0.4063 C   0  0  0  0  0  0  0  0  0  0  0  0
    1.9626   -0.8486    0.9462 C   0  0  0  0  0  0  0  0  0  0  0  0
   -0.5212   -0.3639    0.3950 C   0  0  0  0  0  0  0  0  0  0  0  0
    2.1580   -1.2055    2.4380 C   0  0  1  0  0  0  0  0  0  0  0  0
   -1.5477   -1.0942   -0.2078 C   0  0  0  0  0  0  0  0  0  0  0  0
    0.2906   -2.3941   -0.1788 C   0  0  0  0  0  0  0  0  0  0  0  0
   -0.7916    0.9450    0.8409 C   0  0  0  0  0  0  0  0  0  0  0  0
   -2.8363   -0.5787   -0.3876 C   0  0  0  0  0  0  0  0  0  0  0  0
   -2.0759    1.4737    0.6678 C   0  0  0  0  0  0  0  0  0  0  0  0
    1.1160   -0.5160    3.3028 C   0  0  0  0  0  0  0  0  0  0  0  0
   -3.0811    0.7218    0.0626 C   0  0  0  0  0  0  0  0  0  0  0  0
    2.1307    0.2291    0.8127 H   0  0  0  0  0  0  0  0  0  0  0  0
    2.7363   -1.3455    0.3448 H   0  0  0  0  0  0  0  0  0  0  0  0
    3.1583   -0.9168    2.7813 H   0  0  0  0  0  0  0  0  0  0  0  0
    0.8646   -3.2906   -0.3681 H   0  0  0  0  0  0  0  0  0  0  0  0
   -1.5419   -3.0639   -1.0000 H   0  0  0  0  0  0  0  0  0  0  0  0
   -0.0235    1.5447    1.3203 H   0  0  0  0  0  0  0  0  0  0  0  0
   -3.6113   -1.1739   -0.8604 H   0  0  0  0  0  0  0  0  0  0  0  0
   -2.2756    2.4845    1.0165 H   0  0  0  0  0  0  0  0  0  0  0  0
    2.2059   -2.8802    3.6127 H   0  0  0  0  0  0  0  0  0  0  0  0
    2.6658   -3.1528    2.0731 H   0  0  0  0  0  0  0  0  0  0  0  0
   -0.3212   -0.9525    4.5459 H   0  0  0  0  0  0  0  0  0  0  0  0
  1 16  1  0  0  0  0
  2 15  1  0  0  0  0
  2 27  1  0  0  0  0
  3 15  2  0  0  0  0
  4 10  1  0  0  0  0
  4 11  1  0  0  0  0
  4 21  1  0  0  0  0
  5  9  1  0  0  0  0
  5 25  1  0  0  0  0
  5 26  1  0  0  0  0
  6  7  1  0  0  0  0
  6  8  1  0  0  0  0
  6 11  2  0  0  0  0
  7  9  1  0  0  0  0
  7 17  1  0  0  0  0
  7 18  1  0  0  0  0
  8 10  2  0  0  0  0
  8 12  1  0  0  0  0
  9 15  1  0  0  0  0
  9 19  1  1  0  0  0
 10 13  1  0  0  0  0
 11 20  1  0  0  0  0
 12 14  2  0  0  0  0
 12 22  1  0  0  0  0
 13 16  2  0  0  0  0
 13 23  1  0  0  0  0
 14 16  1  0  0  0  0
 14 24  1  0  0  0  0
M  END
>  <PUBCHEM_COMPOUND_CID>
10062693

>  <PUBCHEM_CONFORMER_RMSD>
0.6

>  <PUBCHEM_CONFORMER_DIVERSEORDER>
1
17
14
15
6
5
11
16
19
12
9
13
18
7
3
2
4
8
10

>  <PUBCHEM_MMFF94_PARTIAL_CHARGES>
23
1 -0.18
10 -0.15
11 -0.3
12 -0.15
13 -0.15
14 -0.15
15 0.66
16 0.18
2 -0.65
20 0.15
21 0.27
22 0.15
23 0.15
24 0.15
25 0.36
26 0.36
27 0.5
3 -0.57
4 0.03
5 -0.99
6 -0.18
7 0.18
9 0.33

>  <PUBCHEM_EFFECTIVE_ROTOR_COUNT>
3

>  <PUBCHEM_PHARMACOPHORE_FEATURES>
9
1 2 acceptor
1 3 acceptor
1 4 cation
1 4 donor
1 5 cation
1 5 donor
3 2 3 15 anion
5 4 6 8 10 11 rings
6 8 10 12 13 14 16 rings

>  <PUBCHEM_HEAVY_ATOM_COUNT>
16

>  <PUBCHEM_ATOM_DEF_STEREO_COUNT>
1

>  <PUBCHEM_ATOM_UDEF_STEREO_COUNT>
0

>  <PUBCHEM_BOND_DEF_STEREO_COUNT>
0

>  <PUBCHEM_BOND_UDEF_STEREO_COUNT>
0

>  <PUBCHEM_ISOTOPIC_ATOM_COUNT>
0

>  <PUBCHEM_COMPONENT_COUNT>
1

>  <PUBCHEM_CACTVS_TAUTO_COUNT>
1

>  <PUBCHEM_CONFORMER_ID>
00998B6500000001

>  <PUBCHEM_MMFF94_ENERGY>
20.8722

>  <PUBCHEM_FEATURE_SELFOVERLAP>
45.82

>  <PUBCHEM_SHAPE_FINGERPRINT>
11640471 11 17897169241496700116
13380535 76 18410294670933973003
13583140 156 17168139023420613315
15775835 57 18334019405910167348
16945 1 18337673005782027651
17134986 127 18410578374618668357
18186145 218 18272381870667978737
20645476 183 18408598171668519395
21524375 3 18335423447925303731
22094290 62 18335419058584713298
231179 274 17968653805271512917
23175994 123 15647323105745291258
23402539 116 18059846273108328044
23419403 2 16323922072468417122
23557571 272 17560515230569604782
23559900 14 17988921185422784794
2748010 2 17333914852425149699
3060560 45 18339643317565256630
474 4 18261115132279299961
537710 114 18271523105348421913
58051976 378 18270678667464673221
7364860 26 18127694816149601031
7832392 63 18408881875901580972
9981440 41 17542499887853393528

>  <PUBCHEM_SHAPE_MULTIPOLES>
309.44
6.42
2.24
0.96
1.9
0.59
-0.15
-3.38
-0.1
-0.14
-0.26
-0.32
-0.17
-0.59

>  <PUBCHEM_SHAPE_SELFOVERLAP>
658.007

>  <PUBCHEM_SHAPE_VOLUME>
174.4

>  <PUBCHEM_COORDINATE_TYPE>
2
5
10

$$$$
10062693
 OpenBabel12092211553D

 27 28  0  0  1  0  0  0  0  0999 V2000
   -4.6519    1.4032   -0.1345 Cl  0  0  0  0  0  0  0  0  0  0  0  0
    2.7343   -0.5133   -2.4424 O   0  0  0  0  0  0  0  0  0  0  0  0
    3.5791   -2.2354   -1.2334 O   0  0  0  0  0  0  0  0  0  0  0  0
   -1.0263   -2.3226   -0.5460 N   0  0  0  0  0  0  0  0  0  0  0  0
    2.3341    1.0537   -0.5897 N   0  0  0  0  0  0  0  0  0  0  0  0
    0.6326   -1.1967    0.4063 C   0  0  0  0  0  0  0  0  0  0  0  0
    1.9626   -0.8486    0.9462 C   0  0  0  0  0  0  0  0  0  0  0  0
   -0.5212   -0.3639    0.3950 C   0  0  0  0  0  0  0  0  0  0  0  0
    2.9146   -0.1914   -0.0798 C   0  0  1  0  0  0  0  0  0  0  0  0
   -1.5477   -1.0942   -0.2078 C   0  0  0  0  0  0  0  0  0  0  0  0
    0.2906   -2.3941   -0.1788 C   0  0  0  0  0  0  0  0  0  0  0  0
   -0.7916    0.9450    0.8409 C   0  0  0  0  0  0  0  0  0  0  0  0
   -2.8363   -0.5787   -0.3876 C   0  0  0  0  0  0  0  0  0  0  0  0
   -2.0759    1.4737    0.6678 C   0  0  0  0  0  0  0  0  0  0  0  0
    3.1289   -1.0976   -1.2807 C   0  0  0  0  0  0  0  0  0  0  0  0
   -3.0811    0.7218    0.0626 C   0  0  0  0  0  0  0  0  0  0  0  0
    2.4367   -1.7582    1.3404 H   0  0  0  0  0  0  0  0  0  0  0  0
    1.8368   -0.1822    1.8107 H   0  0  0  0  0  0  0  0  0  0  0  0
    3.8851    0.0357    0.3769 H   0  0  0  0  0  0  0  0  0  0  0  0
    0.8646   -3.2906   -0.3681 H   0  0  0  0  0  0  0  0  0  0  0  0
   -1.5419   -3.0639   -1.0000 H   0  0  0  0  0  0  0  0  0  0  0  0
   -0.0235    1.5447    1.3203 H   0  0  0  0  0  0  0  0  0  0  0  0
   -3.6113   -1.1739   -0.8604 H   0  0  0  0  0  0  0  0  0  0  0  0
   -2.2756    2.4845    1.0165 H   0  0  0  0  0  0  0  0  0  0  0  0
    3.0069    1.5200   -1.1976 H   0  0  0  0  0  0  0  0  0  0  0  0
    2.1637    1.6922    0.1864 H   0  0  0  0  0  0  0  0  0  0  0  0
    2.8683   -1.1054   -3.2129 H   0  0  0  0  0  0  0  0  0  0  0  0
  1 16  1  0  0  0  0
  2 15  1  0  0  0  0
  2 27  1  0  0  0  0
  3 15  2  0  0  0  0
  4 10  1  0  0  0  0
  4 11  1  0  0  0  0
  4 21  1  0  0  0  0
  5  9  1  0  0  0  0
  5 25  1  0  0  0  0
  5 26  1  0  0  0  0
  6  7  1  0  0  0  0
  6  8  1  0  0  0  0
  6 11  2  0  0  0  0
  7  9  1  0  0  0  0
  7 17  1  0  0  0  0
  7 18  1  0  0  0  0
  8 10  2  0  0  0  0
  8 12  1  0  0  0  0
  9 15  1  0  0  0  0
  9 19  1  1  0  0  0
 10 13  1  0  0  0  0
 11 20  1  0  0  0  0
 12 14  2  0  0  0  0
 12 22  1  0  0  0  0
 13 16  2  0  0  0  0
 13 23  1  0  0  0  0
 14 16  1  0  0  0  0
 14 24  1  0  0  0  0
M  END
>  <PUBCHEM_COMPOUND_CID>
10062693

>  <PUBCHEM_CONFORMER_RMSD>
0.6

>  <PUBCHEM_CONFORMER_DIVERSEORDER>
1
17
14
15
6
5
11
16
19
12
9
13
18
7
3
2
4
8
10

>  <PUBCHEM_MMFF94_PARTIAL_CHARGES>
23
1 -0.18
10 -0.15
11 -0.3
12 -0.15
13 -0.15
14 -0.15
15 0.66
16 0.18
2 -0.65
20 0.15
21 0.27
22 0.15
23 0.15
24 0.15
25 0.36
26 0.36
27 0.5
3 -0.57
4 0.03
5 -0.99
6 -0.18
7 0.18
9 0.33

>  <PUBCHEM_EFFECTIVE_ROTOR_COUNT>
3

>  <PUBCHEM_PHARMACOPHORE_FEATURES>
9
1 2 acceptor
1 3 acceptor
1 4 cation
1 4 donor
1 5 cation
1 5 donor
3 2 3 15 anion
5 4 6 8 10 11 rings
6 8 10 12 13 14 16 rings

>  <PUBCHEM_HEAVY_ATOM_COUNT>
16

>  <PUBCHEM_ATOM_DEF_STEREO_COUNT>
1

>  <PUBCHEM_ATOM_UDEF_STEREO_COUNT>
0

>  <PUBCHEM_BOND_DEF_STEREO_COUNT>
0

>  <PUBCHEM_BOND_UDEF_STEREO_COUNT>
0

>  <PUBCHEM_ISOTOPIC_ATOM_COUNT>
0

>  <PUBCHEM_COMPONENT_COUNT>
1

>  <PUBCHEM_CACTVS_TAUTO_COUNT>
1

>  <PUBCHEM_CONFORMER_ID>
00998B6500000001

>  <PUBCHEM_MMFF94_ENERGY>
20.8722

>  <PUBCHEM_FEATURE_SELFOVERLAP>
45.82

>  <PUBCHEM_SHAPE_FINGERPRINT>
11640471 11 17897169241496700116
13380535 76 18410294670933973003
13583140 156 17168139023420613315
15775835 57 18334019405910167348
16945 1 18337673005782027651
17134986 127 18410578374618668357
18186145 218 18272381870667978737
20645476 183 18408598171668519395
21524375 3 18335423447925303731
22094290 62 18335419058584713298
231179 274 17968653805271512917
23175994 123 15647323105745291258
23402539 116 18059846273108328044
23419403 2 16323922072468417122
23557571 272 17560515230569604782
23559900 14 17988921185422784794
2748010 2 17333914852425149699
3060560 45 18339643317565256630
474 4 18261115132279299961
537710 114 18271523105348421913
58051976 378 18270678667464673221
7364860 26 18127694816149601031
7832392 63 18408881875901580972
9981440 41 17542499887853393528

>  <PUBCHEM_SHAPE_MULTIPOLES>
309.44
6.42
2.24
0.96
1.9
0.59
-0.15
-3.38
-0.1
-0.14
-0.26
-0.32
-0.17
-0.59

>  <PUBCHEM_SHAPE_SELFOVERLAP>
658.007

>  <PUBCHEM_SHAPE_VOLUME>
174.4

>  <PUBCHEM_COORDINATE_TYPE>
2
5
10

$$$$
10062693
 OpenBabel12092211553D

 27 28  0  0  1  0  0  0  0  0999 V2000
   -4.6519    1.4032   -0.1345 Cl  0  0  0  0  0  0  0  0  0  0  0  0
    0.8024   -0.5906    3.3526 O   0  0  0  0  0  0  0  0  0  0  0  0
    1.2938   -2.6999    4.0236 O   0  0  0  0  0  0  0  0  0  0  0  0
   -1.0263   -2.3226   -0.5460 N   0  0  0  0  0  0  0  0  0  0  0  0
    2.5417   -3.1581    1.6147 N   0  0  0  0  0  0  0  0  0  0  0  0
    0.6326   -1.1967    0.4063 C   0  0  0  0  0  0  0  0  0  0  0  0
    1.9626   -0.8486    0.9462 C   0  0  0  0  0  0  0  0  0  0  0  0
   -0.5212   -0.3639    0.3950 C   0  0  0  0  0  0  0  0  0  0  0  0
    2.4497   -1.7735    2.0856 C   0  0  1  0  0  0  0  0  0  0  0  0
   -1.5477   -1.0942   -0.2078 C   0  0  0  0  0  0  0  0  0  0  0  0
    0.2906   -2.3941   -0.1788 C   0  0  0  0  0  0  0  0  0  0  0  0
   -0.7916    0.9450    0.8409 C   0  0  0  0  0  0  0  0  0  0  0  0
   -2.8363   -0.5787   -0.3876 C   0  0  0  0  0  0  0  0  0  0  0  0
   -2.0759    1.4737    0.6678 C   0  0  0  0  0  0  0  0  0  0  0  0
    1.4678   -1.7707    3.2453 C   0  0  0  0  0  0  0  0  0  0  0  0
   -3.0811    0.7218    0.0626 C   0  0  0  0  0  0  0  0  0  0  0  0
    1.9385    0.1868    1.3135 H   0  0  0  0  0  0  0  0  0  0  0  0
    2.6960   -0.8553    0.1281 H   0  0  0  0  0  0  0  0  0  0  0  0
    3.4357   -1.4607    2.4486 H   0  0  0  0  0  0  0  0  0  0  0  0
    0.8646   -3.2906   -0.3681 H   0  0  0  0  0  0  0  0  0  0  0  0
   -1.5419   -3.0639   -1.0000 H   0  0  0  0  0  0  0  0  0  0  0  0
   -0.0235    1.5447    1.3203 H   0  0  0  0  0  0  0  0  0  0  0  0
   -3.6113   -1.1739   -0.8604 H   0  0  0  0  0  0  0  0  0  0  0  0
   -2.2756    2.4845    1.0165 H   0  0  0  0  0  0  0  0  0  0  0  0
    2.9451   -3.7415    2.3471 H   0  0  0  0  0  0  0  0  0  0  0  0
    3.1861   -3.2071    0.8265 H   0  0  0  0  0  0  0  0  0  0  0  0
    0.1754   -0.5922    4.1069 H   0  0  0  0  0  0  0  0  0  0  0  0
  1 16  1  0  0  0  0
  2 15  1  0  0  0  0
  2 27  1  0  0  0  0
  3 15  2  0  0  0  0
  4 10  1  0  0  0  0
  4 11  1  0  0  0  0
  4 21  1  0  0  0  0
  5  9  1  0  0  0  0
  5 25  1  0  0  0  0
  5 26  1  0  0  0  0
  6  7  1  0  0  0  0
  6  8  1  0  0  0  0
  6 11  2  0  0  0  0
  7  9  1  0  0  0  0
  7 17  1  0  0  0  0
  7 18  1  0  0  0  0
  8 10  2  0  0  0  0
  8 12  1  0  0  0  0
  9 15  1  0  0  0  0
  9 19  1  1  0  0  0
 10 13  1  0  0  0  0
 11 20  1  0  0  0  0
 12 14  2  0  0  0  0
 12 22  1  0  0  0  0
 13 16  2  0  0  0  0
 13 23  1  0  0  0  0
 14 16  1  0  0  0  0
 14 24  1  0  0  0  0
M  END
>  <PUBCHEM_COMPOUND_CID>
10062693

>  <PUBCHEM_CONFORMER_RMSD>
0.6

>  <PUBCHEM_CONFORMER_DIVERSEORDER>
1
17
14
15
6
5
11
16
19
12
9
13
18
7
3
2
4
8
10

>  <PUBCHEM_MMFF94_PARTIAL_CHARGES>
23
1 -0.18
10 -0.15
11 -0.3
12 -0.15
13 -0.15
14 -0.15
15 0.66
16 0.18
2 -0.65
20 0.15
21 0.27
22 0.15
23 0.15
24 0.15
25 0.36
26 0.36
27 0.5
3 -0.57
4 0.03
5 -0.99
6 -0.18
7 0.18
9 0.33

>  <PUBCHEM_EFFECTIVE_ROTOR_COUNT>
3

>  <PUBCHEM_PHARMACOPHORE_FEATURES>
9
1 2 acceptor
1 3 acceptor
1 4 cation
1 4 donor
1 5 cation
1 5 donor
3 2 3 15 anion
5 4 6 8 10 11 rings
6 8 10 12 13 14 16 rings

>  <PUBCHEM_HEAVY_ATOM_COUNT>
16

>  <PUBCHEM_ATOM_DEF_STEREO_COUNT>
1

>  <PUBCHEM_ATOM_UDEF_STEREO_COUNT>
0

>  <PUBCHEM_BOND_DEF_STEREO_COUNT>
0

>  <PUBCHEM_BOND_UDEF_STEREO_COUNT>
0

>  <PUBCHEM_ISOTOPIC_ATOM_COUNT>
0

>  <PUBCHEM_COMPONENT_COUNT>
1

>  <PUBCHEM_CACTVS_TAUTO_COUNT>
1

>  <PUBCHEM_CONFORMER_ID>
00998B6500000001

>  <PUBCHEM_MMFF94_ENERGY>
20.8722

>  <PUBCHEM_FEATURE_SELFOVERLAP>
45.82

>  <PUBCHEM_SHAPE_FINGERPRINT>
11640471 11 17897169241496700116
13380535 76 18410294670933973003
13583140 156 17168139023420613315
15775835 57 18334019405910167348
16945 1 18337673005782027651
17134986 127 18410578374618668357
18186145 218 18272381870667978737
20645476 183 18408598171668519395
21524375 3 18335423447925303731
22094290 62 18335419058584713298
231179 274 17968653805271512917
23175994 123 15647323105745291258
23402539 116 18059846273108328044
23419403 2 16323922072468417122
23557571 272 17560515230569604782
23559900 14 17988921185422784794
2748010 2 17333914852425149699
3060560 45 18339643317565256630
474 4 18261115132279299961
537710 114 18271523105348421913
58051976 378 18270678667464673221
7364860 26 18127694816149601031
7832392 63 18408881875901580972
9981440 41 17542499887853393528

>  <PUBCHEM_SHAPE_MULTIPOLES>
309.44
6.42
2.24
0.96
1.9
0.59
-0.15
-3.38
-0.1
-0.14
-0.26
-0.32
-0.17
-0.59

>  <PUBCHEM_SHAPE_SELFOVERLAP>
658.007

>  <PUBCHEM_SHAPE_VOLUME>
174.4

>  <PUBCHEM_COORDINATE_TYPE>
2
5
10

$$$$
10062693
 OpenBabel12092211553D

 27 28  0  0  1  0  0  0  0  0999 V2000
   -4.6519    1.4032   -0.1345 Cl  0  0  0  0  0  0  0  0  0  0  0  0
    4.1831   -1.9377   -1.1090 O   0  0  0  0  0  0  0  0  0  0  0  0
    2.4606   -1.0776   -2.3066 O   0  0  0  0  0  0  0  0  0  0  0  0
   -1.0263   -2.3226   -0.5460 N   0  0  0  0  0  0  0  0  0  0  0  0
    2.3341    1.0537   -0.5897 N   0  0  0  0  0  0  0  0  0  0  0  0
    0.6326   -1.1967    0.4063 C   0  0  0  0  0  0  0  0  0  0  0  0
    1.9626   -0.8486    0.9462 C   0  0  0  0  0  0  0  0  0  0  0  0
   -0.5212   -0.3639    0.3950 C   0  0  0  0  0  0  0  0  0  0  0  0
    2.9146   -0.1914   -0.0798 C   0  0  1  0  0  0  0  0  0  0  0  0
   -1.5477   -1.0942   -0.2078 C   0  0  0  0  0  0  0  0  0  0  0  0
    0.2906   -2.3941   -0.1788 C   0  0  0  0  0  0  0  0  0  0  0  0
   -0.7916    0.9450    0.8409 C   0  0  0  0  0  0  0  0  0  0  0  0
   -2.8363   -0.5787   -0.3876 C   0  0  0  0  0  0  0  0  0  0  0  0
   -2.0759    1.4737    0.6678 C   0  0  0  0  0  0  0  0  0  0  0  0
    3.1289   -1.0976   -1.2807 C   0  0  0  0  0  0  0  0  0  0  0  0
   -3.0811    0.7218    0.0626 C   0  0  0  0  0  0  0  0  0  0  0  0
    2.4367   -1.7582    1.3404 H   0  0  0  0  0  0  0  0  0  0  0  0
    1.8368   -0.1822    1.8107 H   0  0  0  0  0  0  0  0  0  0  0  0
    3.8851    0.0357    0.3769 H   0  0  0  0  0  0  0  0  0  0  0  0
    0.8646   -3.2906   -0.3681 H   0  0  0  0  0  0  0  0  0  0  0  0
   -1.5419   -3.0639   -1.0000 H   0  0  0  0  0  0  0  0  0  0  0  0
   -0.0235    1.5447    1.3203 H   0  0  0  0  0  0  0  0  0  0  0  0
   -3.6113   -1.1739   -0.8604 H   0  0  0  0  0  0  0  0  0  0  0  0
   -2.2756    2.4845    1.0165 H   0  0  0  0  0  0  0  0  0  0  0  0
    3.0069    1.5200   -1.1976 H   0  0  0  0  0  0  0  0  0  0  0  0
    2.1637    1.6922    0.1864 H   0  0  0  0  0  0  0  0  0  0  0  0
    4.3208   -2.5151   -1.8899 H   0  0  0  0  0  0  0  0  0  0  0  0
  1 16  1  0  0  0  0
  2 15  1  0  0  0  0
  2 27  1  0  0  0  0
  3 15  2  0  0  0  0
  4 10  1  0  0  0  0
  4 11  1  0  0  0  0
  4 21  1  0  0  0  0
  5  9  1  0  0  0  0
  5 25  1  0  0  0  0
  5 26  1  0  0  0  0
  6  7  1  0  0  0  0
  6  8  1  0  0  0  0
  6 11  2  0  0  0  0
  7  9  1  0  0  0  0
  7 17  1  0  0  0  0
  7 18  1  0  0  0  0
  8 10  2  0  0  0  0
  8 12  1  0  0  0  0
  9 15  1  0  0  0  0
  9 19  1  1  0  0  0
 10 13  1  0  0  0  0
 11 20  1  0  0  0  0
 12 14  2  0  0  0  0
 12 22  1  0  0  0  0
 13 16  2  0  0  0  0
 13 23  1  0  0  0  0
 14 16  1  0  0  0  0
 14 24  1  0  0  0  0
M  END
>  <PUBCHEM_COMPOUND_CID>
10062693

>  <PUBCHEM_CONFORMER_RMSD>
0.6

>  <PUBCHEM_CONFORMER_DIVERSEORDER>
1
17
14
15
6
5
11
16
19
12
9
13
18
7
3
2
4
8
10

>  <PUBCHEM_MMFF94_PARTIAL_CHARGES>
23
1 -0.18
10 -0.15
11 -0.3
12 -0.15
13 -0.15
14 -0.15
15 0.66
16 0.18
2 -0.65
20 0.15
21 0.27
22 0.15
23 0.15
24 0.15
25 0.36
26 0.36
27 0.5
3 -0.57
4 0.03
5 -0.99
6 -0.18
7 0.18
9 0.33

>  <PUBCHEM_EFFECTIVE_ROTOR_COUNT>
3

>  <PUBCHEM_PHARMACOPHORE_FEATURES>
9
1 2 acceptor
1 3 acceptor
1 4 cation
1 4 donor
1 5 cation
1 5 donor
3 2 3 15 anion
5 4 6 8 10 11 rings
6 8 10 12 13 14 16 rings

>  <PUBCHEM_HEAVY_ATOM_COUNT>
16

>  <PUBCHEM_ATOM_DEF_STEREO_COUNT>
1

>  <PUBCHEM_ATOM_UDEF_STEREO_COUNT>
0

>  <PUBCHEM_BOND_DEF_STEREO_COUNT>
0

>  <PUBCHEM_BOND_UDEF_STEREO_COUNT>
0

>  <PUBCHEM_ISOTOPIC_ATOM_COUNT>
0

>  <PUBCHEM_COMPONENT_COUNT>
1

>  <PUBCHEM_CACTVS_TAUTO_COUNT>
1

>  <PUBCHEM_CONFORMER_ID>
00998B6500000001

>  <PUBCHEM_MMFF94_ENERGY>
20.8722

>  <PUBCHEM_FEATURE_SELFOVERLAP>
45.82

>  <PUBCHEM_SHAPE_FINGERPRINT>
11640471 11 17897169241496700116
13380535 76 18410294670933973003
13583140 156 17168139023420613315
15775835 57 18334019405910167348
16945 1 18337673005782027651
17134986 127 18410578374618668357
18186145 218 18272381870667978737
20645476 183 18408598171668519395
21524375 3 18335423447925303731
22094290 62 18335419058584713298
231179 274 17968653805271512917
23175994 123 15647323105745291258
23402539 116 18059846273108328044
23419403 2 16323922072468417122
23557571 272 17560515230569604782
23559900 14 17988921185422784794
2748010 2 17333914852425149699
3060560 45 18339643317565256630
474 4 18261115132279299961
537710 114 18271523105348421913
58051976 378 18270678667464673221
7364860 26 18127694816149601031
7832392 63 18408881875901580972
9981440 41 17542499887853393528

>  <PUBCHEM_SHAPE_MULTIPOLES>
309.44
6.42
2.24
0.96
1.9
0.59
-0.15
-3.38
-0.1
-0.14
-0.26
-0.32
-0.17
-0.59

>  <PUBCHEM_SHAPE_SELFOVERLAP>
658.007

>  <PUBCHEM_SHAPE_VOLUME>
174.4

>  <PUBCHEM_COORDINATE_TYPE>
2
5
10

$$$$
10062693
 OpenBabel12092211553D

 27 28  0  0  1  0  0  0  0  0999 V2000
   -4.6519    1.4032   -0.1345 Cl  0  0  0  0  0  0  0  0  0  0  0  0
    1.5437    0.3308   -1.4280 O   0  0  0  0  0  0  0  0  0  0  0  0
    3.7446    0.6554   -1.8659 O   0  0  0  0  0  0  0  0  0  0  0  0
   -1.0263   -2.3226   -0.5460 N   0  0  0  0  0  0  0  0  0  0  0  0
    4.3805   -0.5366    0.5310 N   0  0  0  0  0  0  0  0  0  0  0  0
    0.6326   -1.1967    0.4063 C   0  0  0  0  0  0  0  0  0  0  0  0
    1.9626   -0.8486    0.9462 C   0  0  0  0  0  0  0  0  0  0  0  0
   -0.5212   -0.3639    0.3950 C   0  0  0  0  0  0  0  0  0  0  0  0
    3.1050   -0.8953   -0.0949 C   0  0  1  0  0  0  0  0  0  0  0  0
   -1.5477   -1.0942   -0.2078 C   0  0  0  0  0  0  0  0  0  0  0  0
    0.2906   -2.3941   -0.1788 C   0  0  0  0  0  0  0  0  0  0  0  0
   -0.7916    0.9450    0.8409 C   0  0  0  0  0  0  0  0  0  0  0  0
   -2.8363   -0.5787   -0.3876 C   0  0  0  0  0  0  0  0  0  0  0  0
   -2.0759    1.4737    0.6678 C   0  0  0  0  0  0  0  0  0  0  0  0
    2.8666    0.1105   -1.2088 C   0  0  0  0  0  0  0  0  0  0  0  0
   -3.0811    0.7218    0.0626 C   0  0  0  0  0  0  0  0  0  0  0  0
    2.2035   -1.5343    1.7704 H   0  0  0  0  0  0  0  0  0  0  0  0
    1.9170    0.1521    1.3976 H   0  0  0  0  0  0  0  0  0  0  0  0
    3.1974   -1.8976   -0.5292 H   0  0  0  0  0  0  0  0  0  0  0  0
    0.8646   -3.2906   -0.3681 H   0  0  0  0  0  0  0  0  0  0  0  0
   -1.5419   -3.0639   -1.0000 H   0  0  0  0  0  0  0  0  0  0  0  0
   -0.0235    1.5447    1.3203 H   0  0  0  0  0  0  0  0  0  0  0  0
   -3.6113   -1.1739   -0.8604 H   0  0  0  0  0  0  0  0  0  0  0  0
   -2.2756    2.4845    1.0165 H   0  0  0  0  0  0  0  0  0  0  0  0
    5.1364   -0.6549   -0.1430 H   0  0  0  0  0  0  0  0  0  0  0  0
    4.5781   -1.1824    1.2944 H   0  0  0  0  0  0  0  0  0  0  0  0
    1.3960    0.9753   -2.1526 H   0  0  0  0  0  0  0  0  0  0  0  0
  1 16  1  0  0  0  0
  2 15  1  0  0  0  0
  2 27  1  0  0  0  0
  3 15  2  0  0  0  0
  4 10  1  0  0  0  0
  4 11  1  0  0  0  0
  4 21  1  0  0  0  0
  5  9  1  0  0  0  0
  5 25  1  0  0  0  0
  5 26  1  0  0  0  0
  6  7  1  0  0  0  0
  6  8  1  0  0  0  0
  6 11  2  0  0  0  0
  7  9  1  0  0  0  0
  7 17  1  0  0  0  0
  7 18  1  0  0  0  0
  8 10  2  0  0  0  0
  8 12  1  0  0  0  0
  9 15  1  0  0  0  0
  9 19  1  6  0  0  0
 10 13  1  0  0  0  0
 11 20  1  0  0  0  0
 12 14  2  0  0  0  0
 12 22  1  0  0  0  0
 13 16  2  0  0  0  0
 13 23  1  0  0  0  0
 14 16  1  0  0  0  0
 14 24  1  0  0  0  0
M  END
>  <PUBCHEM_COMPOUND_CID>
10062693

>  <PUBCHEM_CONFORMER_RMSD>
0.6

>  <PUBCHEM_CONFORMER_DIVERSEORDER>
1
17
14
15
6
5
11
16
19
12
9
13
18
7
3
2
4
8
10

>  <PUBCHEM_MMFF94_PARTIAL_CHARGES>
23
1 -0.18
10 -0.15
11 -0.3
12 -0.15
13 -0.15
14 -0.15
15 0.66
16 0.18
2 -0.65
20 0.15
21 0.27
22 0.15
23 0.15
24 0.15
25 0.36
26 0.36
27 0.5
3 -0.57
4 0.03
5 -0.99
6 -0.18
7 0.18
9 0.33

>  <PUBCHEM_EFFECTIVE_ROTOR_COUNT>
3

>  <PUBCHEM_PHARMACOPHORE_FEATURES>
9
1 2 acceptor
1 3 acceptor
1 4 cation
1 4 donor
1 5 cation
1 5 donor
3 2 3 15 anion
5 4 6 8 10 11 rings
6 8 10 12 13 14 16 rings

>  <PUBCHEM_HEAVY_ATOM_COUNT>
16

>  <PUBCHEM_ATOM_DEF_STEREO_COUNT>
1

>  <PUBCHEM_ATOM_UDEF_STEREO_COUNT>
0

>  <PUBCHEM_BOND_DEF_STEREO_COUNT>
0

>  <PUBCHEM_BOND_UDEF_STEREO_COUNT>
0

>  <PUBCHEM_ISOTOPIC_ATOM_COUNT>
0

>  <PUBCHEM_COMPONENT_COUNT>
1

>  <PUBCHEM_CACTVS_TAUTO_COUNT>
1

>  <PUBCHEM_CONFORMER_ID>
00998B6500000001

>  <PUBCHEM_MMFF94_ENERGY>
20.8722

>  <PUBCHEM_FEATURE_SELFOVERLAP>
45.82

>  <PUBCHEM_SHAPE_FINGERPRINT>
11640471 11 17897169241496700116
13380535 76 18410294670933973003
13583140 156 17168139023420613315
15775835 57 18334019405910167348
16945 1 18337673005782027651
17134986 127 18410578374618668357
18186145 218 18272381870667978737
20645476 183 18408598171668519395
21524375 3 18335423447925303731
22094290 62 18335419058584713298
231179 274 17968653805271512917
23175994 123 15647323105745291258
23402539 116 18059846273108328044
23419403 2 16323922072468417122
23557571 272 17560515230569604782
23559900 14 17988921185422784794
2748010 2 17333914852425149699
3060560 45 18339643317565256630
474 4 18261115132279299961
537710 114 18271523105348421913
58051976 378 18270678667464673221
7364860 26 18127694816149601031
7832392 63 18408881875901580972
9981440 41 17542499887853393528

>  <PUBCHEM_SHAPE_MULTIPOLES>
309.44
6.42
2.24
0.96
1.9
0.59
-0.15
-3.38
-0.1
-0.14
-0.26
-0.32
-0.17
-0.59

>  <PUBCHEM_SHAPE_SELFOVERLAP>
658.007

>  <PUBCHEM_SHAPE_VOLUME>
174.4

>  <PUBCHEM_COORDINATE_TYPE>
2
5
10

$$$$
10062693
 OpenBabel12092211553D

 27 28  0  0  1  0  0  0  0  0999 V2000
   -4.6519    1.4032   -0.1345 Cl  0  0  0  0  0  0  0  0  0  0  0  0
    1.8743   -2.5716    4.2651 O   0  0  0  0  0  0  0  0  0  0  0  0
    0.4134   -1.1486    3.2744 O   0  0  0  0  0  0  0  0  0  0  0  0
   -1.0263   -2.3226   -0.5460 N   0  0  0  0  0  0  0  0  0  0  0  0
    2.5417   -3.1581    1.6147 N   0  0  0  0  0  0  0  0  0  0  0  0
    0.6326   -1.1967    0.4063 C   0  0  0  0  0  0  0  0  0  0  0  0
    1.9626   -0.8486    0.9462 C   0  0  0  0  0  0  0  0  0  0  0  0
   -0.5212   -0.3639    0.3950 C   0  0  0  0  0  0  0  0  0  0  0  0
    2.4497   -1.7735    2.0856 C   0  0  1  0  0  0  0  0  0  0  0  0
   -1.5477   -1.0942   -0.2078 C   0  0  0  0  0  0  0  0  0  0  0  0
    0.2906   -2.3941   -0.1788 C   0  0  0  0  0  0  0  0  0  0  0  0
   -0.7916    0.9450    0.8409 C   0  0  0  0  0  0  0  0  0  0  0  0
   -2.8363   -0.5787   -0.3876 C   0  0  0  0  0  0  0  0  0  0  0  0
   -2.0759    1.4737    0.6678 C   0  0  0  0  0  0  0  0  0  0  0  0
    1.4678   -1.7707    3.2453 C   0  0  0  0  0  0  0  0  0  0  0  0
   -3.0811    0.7218    0.0626 C   0  0  0  0  0  0  0  0  0  0  0  0
    1.9385    0.1868    1.3135 H   0  0  0  0  0  0  0  0  0  0  0  0
    2.6960   -0.8553    0.1281 H   0  0  0  0  0  0  0  0  0  0  0  0
    3.4357   -1.4607    2.4486 H   0  0  0  0  0  0  0  0  0  0  0  0
    0.8646   -3.2906   -0.3681 H   0  0  0  0  0  0  0  0  0  0  0  0
   -1.5419   -3.0639   -1.0000 H   0  0  0  0  0  0  0  0  0  0  0  0
   -0.0235    1.5447    1.3203 H   0  0  0  0  0  0  0  0  0  0  0  0
   -3.6113   -1.1739   -0.8604 H   0  0  0  0  0  0  0  0  0  0  0  0
   -2.2756    2.4845    1.0165 H   0  0  0  0  0  0  0  0  0  0  0  0
    2.9451   -3.7415    2.3471 H   0  0  0  0  0  0  0  0  0  0  0  0
    3.1861   -3.2071    0.8265 H   0  0  0  0  0  0  0  0  0  0  0  0
    1.2334   -2.5713    5.0076 H   0  0  0  0  0  0  0  0  0  0  0  0
  1 16  1  0  0  0  0
  2 15  1  0  0  0  0
  2 27  1  0  0  0  0
  3 15  2  0  0  0  0
  4 10  1  0  0  0  0
  4 11  1  0  0  0  0
  4 21  1  0  0  0  0
  5  9  1  0  0  0  0
  5 25  1  0  0  0  0
  5 26  1  0  0  0  0
  6  7  1  0  0  0  0
  6  8  1  0  0  0  0
  6 11  2  0  0  0  0
  7  9  1  0  0  0  0
  7 17  1  0  0  0  0
  7 18  1  0  0  0  0
  8 10  2  0  0  0  0
  8 12  1  0  0  0  0
  9 15  1  0  0  0  0
  9 19  1  1  0  0  0
 10 13  1  0  0  0  0
 11 20  1  0  0  0  0
 12 14  2  0  0  0  0
 12 22  1  0  0  0  0
 13 16  2  0  0  0  0
 13 23  1  0  0  0  0
 14 16  1  0  0  0  0
 14 24  1  0  0  0  0
M  END
>  <PUBCHEM_COMPOUND_CID>
10062693

>  <PUBCHEM_CONFORMER_RMSD>
0.6

>  <PUBCHEM_CONFORMER_DIVERSEORDER>
1
17
14
15
6
5
11
16
19
12
9
13
18
7
3
2
4
8
10

>  <PUBCHEM_MMFF94_PARTIAL_CHARGES>
23
1 -0.18
10 -0.15
11 -0.3
12 -0.15
13 -0.15
14 -0.15
15 0.66
16 0.18
2 -0.65
20 0.15
21 0.27
22 0.15
23 0.15
24 0.15
25 0.36
26 0.36
27 0.5
3 -0.57
4 0.03
5 -0.99
6 -0.18
7 0.18
9 0.33

>  <PUBCHEM_EFFECTIVE_ROTOR_COUNT>
3

>  <PUBCHEM_PHARMACOPHORE_FEATURES>
9
1 2 acceptor
1 3 acceptor
1 4 cation
1 4 donor
1 5 cation
1 5 donor
3 2 3 15 anion
5 4 6 8 10 11 rings
6 8 10 12 13 14 16 rings

>  <PUBCHEM_HEAVY_ATOM_COUNT>
16

>  <PUBCHEM_ATOM_DEF_STEREO_COUNT>
1

>  <PUBCHEM_ATOM_UDEF_STEREO_COUNT>
0

>  <PUBCHEM_BOND_DEF_STEREO_COUNT>
0

>  <PUBCHEM_BOND_UDEF_STEREO_COUNT>
0

>  <PUBCHEM_ISOTOPIC_ATOM_COUNT>
0

>  <PUBCHEM_COMPONENT_COUNT>
1

>  <PUBCHEM_CACTVS_TAUTO_COUNT>
1

>  <PUBCHEM_CONFORMER_ID>
00998B6500000001

>  <PUBCHEM_MMFF94_ENERGY>
20.8722

>  <PUBCHEM_FEATURE_SELFOVERLAP>
45.82

>  <PUBCHEM_SHAPE_FINGERPRINT>
11640471 11 17897169241496700116
13380535 76 18410294670933973003
13583140 156 17168139023420613315
15775835 57 18334019405910167348
16945 1 18337673005782027651
17134986 127 18410578374618668357
18186145 218 18272381870667978737
20645476 183 18408598171668519395
21524375 3 18335423447925303731
22094290 62 18335419058584713298
231179 274 17968653805271512917
23175994 123 15647323105745291258
23402539 116 18059846273108328044
23419403 2 16323922072468417122
23557571 272 17560515230569604782
23559900 14 17988921185422784794
2748010 2 17333914852425149699
3060560 45 18339643317565256630
474 4 18261115132279299961
537710 114 18271523105348421913
58051976 378 18270678667464673221
7364860 26 18127694816149601031
7832392 63 18408881875901580972
9981440 41 17542499887853393528

>  <PUBCHEM_SHAPE_MULTIPOLES>
309.44
6.42
2.24
0.96
1.9
0.59
-0.15
-3.38
-0.1
-0.14
-0.26
-0.32
-0.17
-0.59

>  <PUBCHEM_SHAPE_SELFOVERLAP>
658.007

>  <PUBCHEM_SHAPE_VOLUME>
174.4

>  <PUBCHEM_COORDINATE_TYPE>
2
5
10

$$$$
10062693
 OpenBabel12092211553D

 27 28  0  0  1  0  0  0  0  0999 V2000
   -4.6519    1.4032   -0.1345 Cl  0  0  0  0  0  0  0  0  0  0  0  0
    0.8175   -3.1795    2.2812 O   0  0  0  0  0  0  0  0  0  0  0  0
    2.9008   -3.4193    3.1434 O   0  0  0  0  0  0  0  0  0  0  0  0
   -1.0263   -2.3226   -0.5460 N   0  0  0  0  0  0  0  0  0  0  0  0
    3.5015   -0.8246    2.8820 N   0  0  0  0  0  0  0  0  0  0  0  0
    0.6326   -1.1967    0.4063 C   0  0  0  0  0  0  0  0  0  0  0  0
    1.9626   -0.8486    0.9462 C   0  0  0  0  0  0  0  0  0  0  0  0
   -0.5212   -0.3639    0.3950 C   0  0  0  0  0  0  0  0  0  0  0  0
    2.1580   -1.2055    2.4380 C   0  0  1  0  0  0  0  0  0  0  0  0
   -1.5477   -1.0942   -0.2078 C   0  0  0  0  0  0  0  0  0  0  0  0
    0.2906   -2.3941   -0.1788 C   0  0  0  0  0  0  0  0  0  0  0  0
   -0.7916    0.9450    0.8409 C   0  0  0  0  0  0  0  0  0  0  0  0
   -2.8363   -0.5787   -0.3876 C   0  0  0  0  0  0  0  0  0  0  0  0
   -2.0759    1.4737    0.6678 C   0  0  0  0  0  0  0  0  0  0  0  0
    2.0330   -2.7037    2.6593 C   0  0  0  0  0  0  0  0  0  0  0  0
   -3.0811    0.7218    0.0626 C   0  0  0  0  0  0  0  0  0  0  0  0
    2.1307    0.2291    0.8127 H   0  0  0  0  0  0  0  0  0  0  0  0
    2.7363   -1.3455    0.3448 H   0  0  0  0  0  0  0  0  0  0  0  0
    1.4220   -0.6870    3.0637 H   0  0  0  0  0  0  0  0  0  0  0  0
    0.8646   -3.2906   -0.3681 H   0  0  0  0  0  0  0  0  0  0  0  0
   -1.5419   -3.0639   -1.0000 H   0  0  0  0  0  0  0  0  0  0  0  0
   -0.0235    1.5447    1.3203 H   0  0  0  0  0  0  0  0  0  0  0  0
   -3.6113   -1.1739   -0.8604 H   0  0  0  0  0  0  0  0  0  0  0  0
   -2.2756    2.4845    1.0165 H   0  0  0  0  0  0  0  0  0  0  0  0
    3.5876   -0.9850    3.8851 H   0  0  0  0  0  0  0  0  0  0  0  0
    3.6346    0.1764    2.7428 H   0  0  0  0  0  0  0  0  0  0  0  0
    0.7402   -4.1455    2.4329 H   0  0  0  0  0  0  0  0  0  0  0  0
  1 16  1  0  0  0  0
  2 15  1  0  0  0  0
  2 27  1  0  0  0  0
  3 15  2  0  0  0  0
  4 10  1  0  0  0  0
  4 11  1  0  0  0  0
  4 21  1  0  0  0  0
  5  9  1  0  0  0  0
  5 25  1  0  0  0  0
  5 26  1  0  0  0  0
  6  7  1  0  0  0  0
  6  8  1  0  0  0  0
  6 11  2  0  0  0  0
  7  9  1  0  0  0  0
  7 17  1  0  0  0  0
  7 18  1  0  0  0  0
  8 10  2  0  0  0  0
  8 12  1  0  0  0  0
  9 15  1  0  0  0  0
  9 19  1  1  0  0  0
 10 13  1  0  0  0  0
 11 20  1  0  0  0  0
 12 14  2  0  0  0  0
 12 22  1  0  0  0  0
 13 16  2  0  0  0  0
 13 23  1  0  0  0  0
 14 16  1  0  0  0  0
 14 24  1  0  0  0  0
M  END
>  <PUBCHEM_COMPOUND_CID>
10062693

>  <PUBCHEM_CONFORMER_RMSD>
0.6

>  <PUBCHEM_CONFORMER_DIVERSEORDER>
1
17
14
15
6
5
11
16
19
12
9
13
18
7
3
2
4
8
10

>  <PUBCHEM_MMFF94_PARTIAL_CHARGES>
23
1 -0.18
10 -0.15
11 -0.3
12 -0.15
13 -0.15
14 -0.15
15 0.66
16 0.18
2 -0.65
20 0.15
21 0.27
22 0.15
23 0.15
24 0.15
25 0.36
26 0.36
27 0.5
3 -0.57
4 0.03
5 -0.99
6 -0.18
7 0.18
9 0.33

>  <PUBCHEM_EFFECTIVE_ROTOR_COUNT>
3

>  <PUBCHEM_PHARMACOPHORE_FEATURES>
9
1 2 acceptor
1 3 acceptor
1 4 cation
1 4 donor
1 5 cation
1 5 donor
3 2 3 15 anion
5 4 6 8 10 11 rings
6 8 10 12 13 14 16 rings

>  <PUBCHEM_HEAVY_ATOM_COUNT>
16

>  <PUBCHEM_ATOM_DEF_STEREO_COUNT>
1

>  <PUBCHEM_ATOM_UDEF_STEREO_COUNT>
0

>  <PUBCHEM_BOND_DEF_STEREO_COUNT>
0

>  <PUBCHEM_BOND_UDEF_STEREO_COUNT>
0

>  <PUBCHEM_ISOTOPIC_ATOM_COUNT>
0

>  <PUBCHEM_COMPONENT_COUNT>
1

>  <PUBCHEM_CACTVS_TAUTO_COUNT>
1

>  <PUBCHEM_CONFORMER_ID>
00998B6500000001

>  <PUBCHEM_MMFF94_ENERGY>
20.8722

>  <PUBCHEM_FEATURE_SELFOVERLAP>
45.82

>  <PUBCHEM_SHAPE_FINGERPRINT>
11640471 11 17897169241496700116
13380535 76 18410294670933973003
13583140 156 17168139023420613315
15775835 57 18334019405910167348
16945 1 18337673005782027651
17134986 127 18410578374618668357
18186145 218 18272381870667978737
20645476 183 18408598171668519395
21524375 3 18335423447925303731
22094290 62 18335419058584713298
231179 274 17968653805271512917
23175994 123 15647323105745291258
23402539 116 18059846273108328044
23419403 2 16323922072468417122
23557571 272 17560515230569604782
23559900 14 17988921185422784794
2748010 2 17333914852425149699
3060560 45 18339643317565256630
474 4 18261115132279299961
537710 114 18271523105348421913
58051976 378 18270678667464673221
7364860 26 18127694816149601031
7832392 63 18408881875901580972
9981440 41 17542499887853393528

>  <PUBCHEM_SHAPE_MULTIPOLES>
309.44
6.42
2.24
0.96
1.9
0.59
-0.15
-3.38
-0.1
-0.14
-0.26
-0.32
-0.17
-0.59

>  <PUBCHEM_SHAPE_SELFOVERLAP>
658.007

>  <PUBCHEM_SHAPE_VOLUME>
174.4

>  <PUBCHEM_COORDINATE_TYPE>
2
5
10

$$$$
10062693
 OpenBabel12092211553D

 27 28  0  0  1  0  0  0  0  0999 V2000
   -4.6519    1.4032   -0.1345 Cl  0  0  0  0  0  0  0  0  0  0  0  0
    1.4485   -3.9192    1.7512 O   0  0  0  0  0  0  0  0  0  0  0  0
    3.6205   -3.6937    1.1410 O   0  0  0  0  0  0  0  0  0  0  0  0
   -1.0263   -2.3226   -0.5460 N   0  0  0  0  0  0  0  0  0  0  0  0
    3.7722   -1.3518    2.5549 N   0  0  0  0  0  0  0  0  0  0  0  0
    0.6326   -1.1967    0.4063 C   0  0  0  0  0  0  0  0  0  0  0  0
    1.9626   -0.8486    0.9462 C   0  0  0  0  0  0  0  0  0  0  0  0
   -0.5212   -0.3639    0.3950 C   0  0  0  0  0  0  0  0  0  0  0  0
    2.4497   -1.7735    2.0856 C   0  0  1  0  0  0  0  0  0  0  0  0
   -1.5477   -1.0942   -0.2078 C   0  0  0  0  0  0  0  0  0  0  0  0
    0.2906   -2.3941   -0.1788 C   0  0  0  0  0  0  0  0  0  0  0  0
   -0.7916    0.9450    0.8409 C   0  0  0  0  0  0  0  0  0  0  0  0
   -2.8363   -0.5787   -0.3876 C   0  0  0  0  0  0  0  0  0  0  0  0
   -2.0759    1.4737    0.6678 C   0  0  0  0  0  0  0  0  0  0  0  0
    2.5949   -3.2056    1.5987 C   0  0  0  0  0  0  0  0  0  0  0  0
   -3.0811    0.7218    0.0626 C   0  0  0  0  0  0  0  0  0  0  0  0
    1.9385    0.1868    1.3135 H   0  0  0  0  0  0  0  0  0  0  0  0
    2.6960   -0.8553    0.1281 H   0  0  0  0  0  0  0  0  0  0  0  0
    1.7537   -1.7505    2.9324 H   0  0  0  0  0  0  0  0  0  0  0  0
    0.8646   -3.2906   -0.3681 H   0  0  0  0  0  0  0  0  0  0  0  0
   -1.5419   -3.0639   -1.0000 H   0  0  0  0  0  0  0  0  0  0  0  0
   -0.0235    1.5447    1.3203 H   0  0  0  0  0  0  0  0  0  0  0  0
   -3.6113   -1.1739   -0.8604 H   0  0  0  0  0  0  0  0  0  0  0  0
   -2.2756    2.4845    1.0165 H   0  0  0  0  0  0  0  0  0  0  0  0
    4.0434   -1.9138    3.3612 H   0  0  0  0  0  0  0  0  0  0  0  0
    3.7249   -0.3883    2.8843 H   0  0  0  0  0  0  0  0  0  0  0  0
    1.5503   -4.8444    1.4418 H   0  0  0  0  0  0  0  0  0  0  0  0
  1 16  1  0  0  0  0
  2 15  1  0  0  0  0
  2 27  1  0  0  0  0
  3 15  2  0  0  0  0
  4 10  1  0  0  0  0
  4 11  1  0  0  0  0
  4 21  1  0  0  0  0
  5  9  1  0  0  0  0
  5 25  1  0  0  0  0
  5 26  1  0  0  0  0
  6  7  1  0  0  0  0
  6  8  1  0  0  0  0
  6 11  2  0  0  0  0
  7  9  1  0  0  0  0
  7 17  1  0  0  0  0
  7 18  1  0  0  0  0
  8 10  2  0  0  0  0
  8 12  1  0  0  0  0
  9 15  1  0  0  0  0
  9 19  1  1  0  0  0
 10 13  1  0  0  0  0
 11 20  1  0  0  0  0
 12 14  2  0  0  0  0
 12 22  1  0  0  0  0
 13 16  2  0  0  0  0
 13 23  1  0  0  0  0
 14 16  1  0  0  0  0
 14 24  1  0  0  0  0
M  END
>  <PUBCHEM_COMPOUND_CID>
10062693

>  <PUBCHEM_CONFORMER_RMSD>
0.6

>  <PUBCHEM_CONFORMER_DIVERSEORDER>
1
17
14
15
6
5
11
16
19
12
9
13
18
7
3
2
4
8
10

>  <PUBCHEM_MMFF94_PARTIAL_CHARGES>
23
1 -0.18
10 -0.15
11 -0.3
12 -0.15
13 -0.15
14 -0.15
15 0.66
16 0.18
2 -0.65
20 0.15
21 0.27
22 0.15
23 0.15
24 0.15
25 0.36
26 0.36
27 0.5
3 -0.57
4 0.03
5 -0.99
6 -0.18
7 0.18
9 0.33

>  <PUBCHEM_EFFECTIVE_ROTOR_COUNT>
3

>  <PUBCHEM_PHARMACOPHORE_FEATURES>
9
1 2 acceptor
1 3 acceptor
1 4 cation
1 4 donor
1 5 cation
1 5 donor
3 2 3 15 anion
5 4 6 8 10 11 rings
6 8 10 12 13 14 16 rings

>  <PUBCHEM_HEAVY_ATOM_COUNT>
16

>  <PUBCHEM_ATOM_DEF_STEREO_COUNT>
1

>  <PUBCHEM_ATOM_UDEF_STEREO_COUNT>
0

>  <PUBCHEM_BOND_DEF_STEREO_COUNT>
0

>  <PUBCHEM_BOND_UDEF_STEREO_COUNT>
0

>  <PUBCHEM_ISOTOPIC_ATOM_COUNT>
0

>  <PUBCHEM_COMPONENT_COUNT>
1

>  <PUBCHEM_CACTVS_TAUTO_COUNT>
1

>  <PUBCHEM_CONFORMER_ID>
00998B6500000001

>  <PUBCHEM_MMFF94_ENERGY>
20.8722

>  <PUBCHEM_FEATURE_SELFOVERLAP>
45.82

>  <PUBCHEM_SHAPE_FINGERPRINT>
11640471 11 17897169241496700116
13380535 76 18410294670933973003
13583140 156 17168139023420613315
15775835 57 18334019405910167348
16945 1 18337673005782027651
17134986 127 18410578374618668357
18186145 218 18272381870667978737
20645476 183 18408598171668519395
21524375 3 18335423447925303731
22094290 62 18335419058584713298
231179 274 17968653805271512917
23175994 123 15647323105745291258
23402539 116 18059846273108328044
23419403 2 16323922072468417122
23557571 272 17560515230569604782
23559900 14 17988921185422784794
2748010 2 17333914852425149699
3060560 45 18339643317565256630
474 4 18261115132279299961
537710 114 18271523105348421913
58051976 378 18270678667464673221
7364860 26 18127694816149601031
7832392 63 18408881875901580972
9981440 41 17542499887853393528

>  <PUBCHEM_SHAPE_MULTIPOLES>
309.44
6.42
2.24
0.96
1.9
0.59
-0.15
-3.38
-0.1
-0.14
-0.26
-0.32
-0.17
-0.59

>  <PUBCHEM_SHAPE_SELFOVERLAP>
658.007

>  <PUBCHEM_SHAPE_VOLUME>
174.4

>  <PUBCHEM_COORDINATE_TYPE>
2
5
10

$$$$
10062693
 OpenBabel12092211553D

 27 28  0  0  1  0  0  0  0  0999 V2000
   -4.6519    1.4032   -0.1345 Cl  0  0  0  0  0  0  0  0  0  0  0  0
    1.7451   -2.9758    2.5683 O   0  0  0  0  0  0  0  0  0  0  0  0
    2.8813   -4.3757    1.1935 O   0  0  0  0  0  0  0  0  0  0  0  0
   -1.0263   -2.3226   -0.5460 N   0  0  0  0  0  0  0  0  0  0  0  0
    3.2194   -2.3152   -0.5983 N   0  0  0  0  0  0  0  0  0  0  0  0
    0.6326   -1.1967    0.4063 C   0  0  0  0  0  0  0  0  0  0  0  0
    1.9626   -0.8486    0.9462 C   0  0  0  0  0  0  0  0  0  0  0  0
   -0.5212   -0.3639    0.3950 C   0  0  0  0  0  0  0  0  0  0  0  0
    3.0184   -1.9703    0.8117 C   0  0  1  0  0  0  0  0  0  0  0  0
   -1.5477   -1.0942   -0.2078 C   0  0  0  0  0  0  0  0  0  0  0  0
    0.2906   -2.3941   -0.1788 C   0  0  0  0  0  0  0  0  0  0  0  0
   -0.7916    0.9450    0.8409 C   0  0  0  0  0  0  0  0  0  0  0  0
   -2.8363   -0.5787   -0.3876 C   0  0  0  0  0  0  0  0  0  0  0  0
   -2.0759    1.4737    0.6678 C   0  0  0  0  0  0  0  0  0  0  0  0
    2.5563   -3.2383    1.5101 C   0  0  0  0  0  0  0  0  0  0  0  0
   -3.0811    0.7218    0.0626 C   0  0  0  0  0  0  0  0  0  0  0  0
    1.8583   -0.5829    2.0073 H   0  0  0  0  0  0  0  0  0  0  0  0
    2.3264    0.0606    0.4480 H   0  0  0  0  0  0  0  0  0  0  0  0
    3.9791   -1.6559    1.2359 H   0  0  0  0  0  0  0  0  0  0  0  0
    0.8646   -3.2906   -0.3681 H   0  0  0  0  0  0  0  0  0  0  0  0
   -1.5419   -3.0639   -1.0000 H   0  0  0  0  0  0  0  0  0  0  0  0
   -0.0235    1.5447    1.3203 H   0  0  0  0  0  0  0  0  0  0  0  0
   -3.6113   -1.1739   -0.8604 H   0  0  0  0  0  0  0  0  0  0  0  0
   -2.2756    2.4845    1.0165 H   0  0  0  0  0  0  0  0  0  0  0  0
    3.9774   -2.9922   -0.6792 H   0  0  0  0  0  0  0  0  0  0  0  0
    3.5226   -1.4880   -1.1108 H   0  0  0  0  0  0  0  0  0  0  0  0
    1.4557   -3.7974    3.0193 H   0  0  0  0  0  0  0  0  0  0  0  0
  1 16  1  0  0  0  0
  2 15  1  0  0  0  0
  2 27  1  0  0  0  0
  3 15  2  0  0  0  0
  4 10  1  0  0  0  0
  4 11  1  0  0  0  0
  4 21  1  0  0  0  0
  5  9  1  0  0  0  0
  5 25  1  0  0  0  0
  5 26  1  0  0  0  0
  6  7  1  0  0  0  0
  6  8  1  0  0  0  0
  6 11  2  0  0  0  0
  7  9  1  0  0  0  0
  7 17  1  0  0  0  0
  7 18  1  0  0  0  0
  8 10  2  0  0  0  0
  8 12  1  0  0  0  0
  9 15  1  0  0  0  0
  9 19  1  1  0  0  0
 10 13  1  0  0  0  0
 11 20  1  0  0  0  0
 12 14  2  0  0  0  0
 12 22  1  0  0  0  0
 13 16  2  0  0  0  0
 13 23  1  0  0  0  0
 14 16  1  0  0  0  0
 14 24  1  0  0  0  0
M  END
>  <PUBCHEM_COMPOUND_CID>
10062693

>  <PUBCHEM_CONFORMER_RMSD>
0.6

>  <PUBCHEM_CONFORMER_DIVERSEORDER>
1
17
14
15
6
5
11
16
19
12
9
13
18
7
3
2
4
8
10

>  <PUBCHEM_MMFF94_PARTIAL_CHARGES>
23
1 -0.18
10 -0.15
11 -0.3
12 -0.15
13 -0.15
14 -0.15
15 0.66
16 0.18
2 -0.65
20 0.15
21 0.27
22 0.15
23 0.15
24 0.15
25 0.36
26 0.36
27 0.5
3 -0.57
4 0.03
5 -0.99
6 -0.18
7 0.18
9 0.33

>  <PUBCHEM_EFFECTIVE_ROTOR_COUNT>
3

>  <PUBCHEM_PHARMACOPHORE_FEATURES>
9
1 2 acceptor
1 3 acceptor
1 4 cation
1 4 donor
1 5 cation
1 5 donor
3 2 3 15 anion
5 4 6 8 10 11 rings
6 8 10 12 13 14 16 rings

>  <PUBCHEM_HEAVY_ATOM_COUNT>
16

>  <PUBCHEM_ATOM_DEF_STEREO_COUNT>
1

>  <PUBCHEM_ATOM_UDEF_STEREO_COUNT>
0

>  <PUBCHEM_BOND_DEF_STEREO_COUNT>
0

>  <PUBCHEM_BOND_UDEF_STEREO_COUNT>
0

>  <PUBCHEM_ISOTOPIC_ATOM_COUNT>
0

>  <PUBCHEM_COMPONENT_COUNT>
1

>  <PUBCHEM_CACTVS_TAUTO_COUNT>
1

>  <PUBCHEM_CONFORMER_ID>
00998B6500000001

>  <PUBCHEM_MMFF94_ENERGY>
20.8722

>  <PUBCHEM_FEATURE_SELFOVERLAP>
45.82

>  <PUBCHEM_SHAPE_FINGERPRINT>
11640471 11 17897169241496700116
13380535 76 18410294670933973003
13583140 156 17168139023420613315
15775835 57 18334019405910167348
16945 1 18337673005782027651
17134986 127 18410578374618668357
18186145 218 18272381870667978737
20645476 183 18408598171668519395
21524375 3 18335423447925303731
22094290 62 18335419058584713298
231179 274 17968653805271512917
23175994 123 15647323105745291258
23402539 116 18059846273108328044
23419403 2 16323922072468417122
23557571 272 17560515230569604782
23559900 14 17988921185422784794
2748010 2 17333914852425149699
3060560 45 18339643317565256630
474 4 18261115132279299961
537710 114 18271523105348421913
58051976 378 18270678667464673221
7364860 26 18127694816149601031
7832392 63 18408881875901580972
9981440 41 17542499887853393528

>  <PUBCHEM_SHAPE_MULTIPOLES>
309.44
6.42
2.24
0.96
1.9
0.59
-0.15
-3.38
-0.1
-0.14
-0.26
-0.32
-0.17
-0.59

>  <PUBCHEM_SHAPE_SELFOVERLAP>
658.007

>  <PUBCHEM_SHAPE_VOLUME>
174.4

>  <PUBCHEM_COORDINATE_TYPE>
2
5
10

$$$$
10062693
 OpenBabel12092211553D

 27 28  0  0  1  0  0  0  0  0999 V2000
   -4.6519    1.4032   -0.1345 Cl  0  0  0  0  0  0  0  0  0  0  0  0
    3.0548   -4.3586    0.9245 O   0  0  0  0  0  0  0  0  0  0  0  0
    1.8027   -3.2769    2.4746 O   0  0  0  0  0  0  0  0  0  0  0  0
   -1.0263   -2.3226   -0.5460 N   0  0  0  0  0  0  0  0  0  0  0  0
    3.2194   -2.3152   -0.5983 N   0  0  0  0  0  0  0  0  0  0  0  0
    0.6326   -1.1967    0.4063 C   0  0  0  0  0  0  0  0  0  0  0  0
    1.9626   -0.8486    0.9462 C   0  0  0  0  0  0  0  0  0  0  0  0
   -0.5212   -0.3639    0.3950 C   0  0  0  0  0  0  0  0  0  0  0  0
    3.0184   -1.9703    0.8117 C   0  0  1  0  0  0  0  0  0  0  0  0
   -1.5477   -1.0942   -0.2078 C   0  0  0  0  0  0  0  0  0  0  0  0
    0.2906   -2.3941   -0.1788 C   0  0  0  0  0  0  0  0  0  0  0  0
   -0.7916    0.9450    0.8409 C   0  0  0  0  0  0  0  0  0  0  0  0
   -2.8363   -0.5787   -0.3876 C   0  0  0  0  0  0  0  0  0  0  0  0
   -2.0759    1.4737    0.6678 C   0  0  0  0  0  0  0  0  0  0  0  0
    2.5563   -3.2383    1.5101 C   0  0  0  0  0  0  0  0  0  0  0  0
   -3.0811    0.7218    0.0626 C   0  0  0  0  0  0  0  0  0  0  0  0
    1.8583   -0.5829    2.0073 H   0  0  0  0  0  0  0  0  0  0  0  0
    2.3264    0.0606    0.4480 H   0  0  0  0  0  0  0  0  0  0  0  0
    3.9791   -1.6559    1.2359 H   0  0  0  0  0  0  0  0  0  0  0  0
    0.8646   -3.2906   -0.3681 H   0  0  0  0  0  0  0  0  0  0  0  0
   -1.5419   -3.0639   -1.0000 H   0  0  0  0  0  0  0  0  0  0  0  0
   -0.0235    1.5447    1.3203 H   0  0  0  0  0  0  0  0  0  0  0  0
   -3.6113   -1.1739   -0.8604 H   0  0  0  0  0  0  0  0  0  0  0  0
   -2.2756    2.4845    1.0165 H   0  0  0  0  0  0  0  0  0  0  0  0
    3.9774   -2.9922   -0.6792 H   0  0  0  0  0  0  0  0  0  0  0  0
    3.5226   -1.4880   -1.1108 H   0  0  0  0  0  0  0  0  0  0  0  0
    2.7476   -5.1739    1.3752 H   0  0  0  0  0  0  0  0  0  0  0  0
  1 16  1  0  0  0  0
  2 15  1  0  0  0  0
  2 27  1  0  0  0  0
  3 15  2  0  0  0  0
  4 10  1  0  0  0  0
  4 11  1  0  0  0  0
  4 21  1  0  0  0  0
  5  9  1  0  0  0  0
  5 25  1  0  0  0  0
  5 26  1  0  0  0  0
  6  7  1  0  0  0  0
  6  8  1  0  0  0  0
  6 11  2  0  0  0  0
  7  9  1  0  0  0  0
  7 17  1  0  0  0  0
  7 18  1  0  0  0  0
  8 10  2  0  0  0  0
  8 12  1  0  0  0  0
  9 15  1  0  0  0  0
  9 19  1  1  0  0  0
 10 13  1  0  0  0  0
 11 20  1  0  0  0  0
 12 14  2  0  0  0  0
 12 22  1  0  0  0  0
 13 16  2  0  0  0  0
 13 23  1  0  0  0  0
 14 16  1  0  0  0  0
 14 24  1  0  0  0  0
M  END
>  <PUBCHEM_COMPOUND_CID>
10062693

>  <PUBCHEM_CONFORMER_RMSD>
0.6

>  <PUBCHEM_CONFORMER_DIVERSEORDER>
1
17
14
15
6
5
11
16
19
12
9
13
18
7
3
2
4
8
10

>  <PUBCHEM_MMFF94_PARTIAL_CHARGES>
23
1 -0.18
10 -0.15
11 -0.3
12 -0.15
13 -0.15
14 -0.15
15 0.66
16 0.18
2 -0.65
20 0.15
21 0.27
22 0.15
23 0.15
24 0.15
25 0.36
26 0.36
27 0.5
3 -0.57
4 0.03
5 -0.99
6 -0.18
7 0.18
9 0.33

>  <PUBCHEM_EFFECTIVE_ROTOR_COUNT>
3

>  <PUBCHEM_PHARMACOPHORE_FEATURES>
9
1 2 acceptor
1 3 acceptor
1 4 cation
1 4 donor
1 5 cation
1 5 donor
3 2 3 15 anion
5 4 6 8 10 11 rings
6 8 10 12 13 14 16 rings

>  <PUBCHEM_HEAVY_ATOM_COUNT>
16

>  <PUBCHEM_ATOM_DEF_STEREO_COUNT>
1

>  <PUBCHEM_ATOM_UDEF_STEREO_COUNT>
0

>  <PUBCHEM_BOND_DEF_STEREO_COUNT>
0

>  <PUBCHEM_BOND_UDEF_STEREO_COUNT>
0

>  <PUBCHEM_ISOTOPIC_ATOM_COUNT>
0

>  <PUBCHEM_COMPONENT_COUNT>
1

>  <PUBCHEM_CACTVS_TAUTO_COUNT>
1

>  <PUBCHEM_CONFORMER_ID>
00998B6500000001

>  <PUBCHEM_MMFF94_ENERGY>
20.8722

>  <PUBCHEM_FEATURE_SELFOVERLAP>
45.82

>  <PUBCHEM_SHAPE_FINGERPRINT>
11640471 11 17897169241496700116
13380535 76 18410294670933973003
13583140 156 17168139023420613315
15775835 57 18334019405910167348
16945 1 18337673005782027651
17134986 127 18410578374618668357
18186145 218 18272381870667978737
20645476 183 18408598171668519395
21524375 3 18335423447925303731
22094290 62 18335419058584713298
231179 274 17968653805271512917
23175994 123 15647323105745291258
23402539 116 18059846273108328044
23419403 2 16323922072468417122
23557571 272 17560515230569604782
23559900 14 17988921185422784794
2748010 2 17333914852425149699
3060560 45 18339643317565256630
474 4 18261115132279299961
537710 114 18271523105348421913
58051976 378 18270678667464673221
7364860 26 18127694816149601031
7832392 63 18408881875901580972
9981440 41 17542499887853393528

>  <PUBCHEM_SHAPE_MULTIPOLES>
309.44
6.42
2.24
0.96
1.9
0.59
-0.15
-3.38
-0.1
-0.14
-0.26
-0.32
-0.17
-0.59

>  <PUBCHEM_SHAPE_SELFOVERLAP>
658.007

>  <PUBCHEM_SHAPE_VOLUME>
174.4

>  <PUBCHEM_COORDINATE_TYPE>
2
5
10

$$$$
10062693
 OpenBabel12092211553D

 27 28  0  0  1  0  0  0  0  0999 V2000
   -4.6519    1.4032   -0.1345 Cl  0  0  0  0  0  0  0  0  0  0  0  0
    4.2892    1.9938    0.8006 O   0  0  0  0  0  0  0  0  0  0  0  0
    4.2773    0.2489    2.2483 O   0  0  0  0  0  0  0  0  0  0  0  0
   -1.0263   -2.3226   -0.5460 N   0  0  0  0  0  0  0  0  0  0  0  0
    2.2927    1.1116   -0.5250 N   0  0  0  0  0  0  0  0  0  0  0  0
    0.6326   -1.1967    0.4063 C   0  0  0  0  0  0  0  0  0  0  0  0
    1.9626   -0.8486    0.9462 C   0  0  0  0  0  0  0  0  0  0  0  0
   -0.5212   -0.3639    0.3950 C   0  0  0  0  0  0  0  0  0  0  0  0
    2.3080    0.6566    0.8678 C   0  0  1  0  0  0  0  0  0  0  0  0
   -1.5477   -1.0942   -0.2078 C   0  0  0  0  0  0  0  0  0  0  0  0
    0.2906   -2.3941   -0.1788 C   0  0  0  0  0  0  0  0  0  0  0  0
   -0.7916    0.9450    0.8409 C   0  0  0  0  0  0  0  0  0  0  0  0
   -2.8363   -0.5787   -0.3876 C   0  0  0  0  0  0  0  0  0  0  0  0
   -2.0759    1.4737    0.6678 C   0  0  0  0  0  0  0  0  0  0  0  0
    3.7069    0.9216    1.3989 C   0  0  0  0  0  0  0  0  0  0  0  0
   -3.0811    0.7218    0.0626 C   0  0  0  0  0  0  0  0  0  0  0  0
    2.7286   -1.4187    0.4024 H   0  0  0  0  0  0  0  0  0  0  0  0
    2.0272   -1.1869    1.9896 H   0  0  0  0  0  0  0  0  0  0  0  0
    1.5874    1.2533    1.4393 H   0  0  0  0  0  0  0  0  0  0  0  0
    0.8646   -3.2906   -0.3681 H   0  0  0  0  0  0  0  0  0  0  0  0
   -1.5419   -3.0639   -1.0000 H   0  0  0  0  0  0  0  0  0  0  0  0
   -0.0235    1.5447    1.3203 H   0  0  0  0  0  0  0  0  0  0  0  0
   -3.6113   -1.1739   -0.8604 H   0  0  0  0  0  0  0  0  0  0  0  0
   -2.2756    2.4845    1.0165 H   0  0  0  0  0  0  0  0  0  0  0  0
    2.4361    2.1206   -0.5558 H   0  0  0  0  0  0  0  0  0  0  0  0
    1.3713    0.9441   -0.9274 H   0  0  0  0  0  0  0  0  0  0  0  0
    5.1943    2.1557    1.1422 H   0  0  0  0  0  0  0  0  0  0  0  0
  1 16  1  0  0  0  0
  2 15  1  0  0  0  0
  2 27  1  0  0  0  0
  3 15  2  0  0  0  0
  4 10  1  0  0  0  0
  4 11  1  0  0  0  0
  4 21  1  0  0  0  0
  5  9  1  0  0  0  0
  5 25  1  0  0  0  0
  5 26  1  0  0  0  0
  6  7  1  0  0  0  0
  6  8  1  0  0  0  0
  6 11  2  0  0  0  0
  7  9  1  0  0  0  0
  7 17  1  0  0  0  0
  7 18  1  0  0  0  0
  8 10  2  0  0  0  0
  8 12  1  0  0  0  0
  9 15  1  0  0  0  0
  9 19  1  1  0  0  0
 10 13  1  0  0  0  0
 11 20  1  0  0  0  0
 12 14  2  0  0  0  0
 12 22  1  0  0  0  0
 13 16  2  0  0  0  0
 13 23  1  0  0  0  0
 14 16  1  0  0  0  0
 14 24  1  0  0  0  0
M  END
>  <PUBCHEM_COMPOUND_CID>
10062693

>  <PUBCHEM_CONFORMER_RMSD>
0.6

>  <PUBCHEM_CONFORMER_DIVERSEORDER>
1
17
14
15
6
5
11
16
19
12
9
13
18
7
3
2
4
8
10

>  <PUBCHEM_MMFF94_PARTIAL_CHARGES>
23
1 -0.18
10 -0.15
11 -0.3
12 -0.15
13 -0.15
14 -0.15
15 0.66
16 0.18
2 -0.65
20 0.15
21 0.27
22 0.15
23 0.15
24 0.15
25 0.36
26 0.36
27 0.5
3 -0.57
4 0.03
5 -0.99
6 -0.18
7 0.18
9 0.33

>  <PUBCHEM_EFFECTIVE_ROTOR_COUNT>
3

>  <PUBCHEM_PHARMACOPHORE_FEATURES>
9
1 2 acceptor
1 3 acceptor
1 4 cation
1 4 donor
1 5 cation
1 5 donor
3 2 3 15 anion
5 4 6 8 10 11 rings
6 8 10 12 13 14 16 rings

>  <PUBCHEM_HEAVY_ATOM_COUNT>
16

>  <PUBCHEM_ATOM_DEF_STEREO_COUNT>
1

>  <PUBCHEM_ATOM_UDEF_STEREO_COUNT>
0

>  <PUBCHEM_BOND_DEF_STEREO_COUNT>
0

>  <PUBCHEM_BOND_UDEF_STEREO_COUNT>
0

>  <PUBCHEM_ISOTOPIC_ATOM_COUNT>
0

>  <PUBCHEM_COMPONENT_COUNT>
1

>  <PUBCHEM_CACTVS_TAUTO_COUNT>
1

>  <PUBCHEM_CONFORMER_ID>
00998B6500000001

>  <PUBCHEM_MMFF94_ENERGY>
20.8722

>  <PUBCHEM_FEATURE_SELFOVERLAP>
45.82

>  <PUBCHEM_SHAPE_FINGERPRINT>
11640471 11 17897169241496700116
13380535 76 18410294670933973003
13583140 156 17168139023420613315
15775835 57 18334019405910167348
16945 1 18337673005782027651
17134986 127 18410578374618668357
18186145 218 18272381870667978737
20645476 183 18408598171668519395
21524375 3 18335423447925303731
22094290 62 18335419058584713298
231179 274 17968653805271512917
23175994 123 15647323105745291258
23402539 116 18059846273108328044
23419403 2 16323922072468417122
23557571 272 17560515230569604782
23559900 14 17988921185422784794
2748010 2 17333914852425149699
3060560 45 18339643317565256630
474 4 18261115132279299961
537710 114 18271523105348421913
58051976 378 18270678667464673221
7364860 26 18127694816149601031
7832392 63 18408881875901580972
9981440 41 17542499887853393528

>  <PUBCHEM_SHAPE_MULTIPOLES>
309.44
6.42
2.24
0.96
1.9
0.59
-0.15
-3.38
-0.1
-0.14
-0.26
-0.32
-0.17
-0.59

>  <PUBCHEM_SHAPE_SELFOVERLAP>
658.007

>  <PUBCHEM_SHAPE_VOLUME>
174.4

>  <PUBCHEM_COORDINATE_TYPE>
2
5
10

$$$$
10062693
 OpenBabel12092211553D

 27 28  0  0  1  0  0  0  0  0999 V2000
   -4.6519    1.4032   -0.1345 Cl  0  0  0  0  0  0  0  0  0  0  0  0
    3.6822   -2.2235   -1.9977 O   0  0  0  0  0  0  0  0  0  0  0  0
    2.8923   -3.3238   -0.1794 O   0  0  0  0  0  0  0  0  0  0  0  0
   -1.0263   -2.3226   -0.5460 N   0  0  0  0  0  0  0  0  0  0  0  0
    2.8398    0.0464   -1.1858 N   0  0  0  0  0  0  0  0  0  0  0  0
    0.6326   -1.1967    0.4063 C   0  0  0  0  0  0  0  0  0  0  0  0
    1.9626   -0.8486    0.9462 C   0  0  0  0  0  0  0  0  0  0  0  0
   -0.5212   -0.3639    0.3950 C   0  0  0  0  0  0  0  0  0  0  0  0
    3.1050   -0.8953   -0.0949 C   0  0  1  0  0  0  0  0  0  0  0  0
   -1.5477   -1.0942   -0.2078 C   0  0  0  0  0  0  0  0  0  0  0  0
    0.2906   -2.3941   -0.1788 C   0  0  0  0  0  0  0  0  0  0  0  0
   -0.7916    0.9450    0.8409 C   0  0  0  0  0  0  0  0  0  0  0  0
   -2.8363   -0.5787   -0.3876 C   0  0  0  0  0  0  0  0  0  0  0  0
   -2.0759    1.4737    0.6678 C   0  0  0  0  0  0  0  0  0  0  0  0
    3.2109   -2.2744   -0.7241 C   0  0  0  0  0  0  0  0  0  0  0  0
   -3.0811    0.7218    0.0626 C   0  0  0  0  0  0  0  0  0  0  0  0
    2.2035   -1.5343    1.7704 H   0  0  0  0  0  0  0  0  0  0  0  0
    1.9170    0.1521    1.3976 H   0  0  0  0  0  0  0  0  0  0  0  0
    4.0651   -0.6358    0.3664 H   0  0  0  0  0  0  0  0  0  0  0  0
    0.8646   -3.2906   -0.3681 H   0  0  0  0  0  0  0  0  0  0  0  0
   -1.5419   -3.0639   -1.0000 H   0  0  0  0  0  0  0  0  0  0  0  0
   -0.0235    1.5447    1.3203 H   0  0  0  0  0  0  0  0  0  0  0  0
   -3.6113   -1.1739   -0.8604 H   0  0  0  0  0  0  0  0  0  0  0  0
   -2.2756    2.4845    1.0165 H   0  0  0  0  0  0  0  0  0  0  0  0
    3.6388    0.0692   -1.8187 H   0  0  0  0  0  0  0  0  0  0  0  0
    2.7512    0.9888   -0.8075 H   0  0  0  0  0  0  0  0  0  0  0  0
    3.7418   -3.1156   -2.4010 H   0  0  0  0  0  0  0  0  0  0  0  0
  1 16  1  0  0  0  0
  2 15  1  0  0  0  0
  2 27  1  0  0  0  0
  3 15  2  0  0  0  0
  4 10  1  0  0  0  0
  4 11  1  0  0  0  0
  4 21  1  0  0  0  0
  5  9  1  0  0  0  0
  5 25  1  0  0  0  0
  5 26  1  0  0  0  0
  6  7  1  0  0  0  0
  6  8  1  0  0  0  0
  6 11  2  0  0  0  0
  7  9  1  0  0  0  0
  7 17  1  0  0  0  0
  7 18  1  0  0  0  0
  8 10  2  0  0  0  0
  8 12  1  0  0  0  0
  9 15  1  0  0  0  0
  9 19  1  1  0  0  0
 10 13  1  0  0  0  0
 11 20  1  0  0  0  0
 12 14  2  0  0  0  0
 12 22  1  0  0  0  0
 13 16  2  0  0  0  0
 13 23  1  0  0  0  0
 14 16  1  0  0  0  0
 14 24  1  0  0  0  0
M  END
>  <PUBCHEM_COMPOUND_CID>
10062693

>  <PUBCHEM_CONFORMER_RMSD>
0.6

>  <PUBCHEM_CONFORMER_DIVERSEORDER>
1
17
14
15
6
5
11
16
19
12
9
13
18
7
3
2
4
8
10

>  <PUBCHEM_MMFF94_PARTIAL_CHARGES>
23
1 -0.18
10 -0.15
11 -0.3
12 -0.15
13 -0.15
14 -0.15
15 0.66
16 0.18
2 -0.65
20 0.15
21 0.27
22 0.15
23 0.15
24 0.15
25 0.36
26 0.36
27 0.5
3 -0.57
4 0.03
5 -0.99
6 -0.18
7 0.18
9 0.33

>  <PUBCHEM_EFFECTIVE_ROTOR_COUNT>
3

>  <PUBCHEM_PHARMACOPHORE_FEATURES>
9
1 2 acceptor
1 3 acceptor
1 4 cation
1 4 donor
1 5 cation
1 5 donor
3 2 3 15 anion
5 4 6 8 10 11 rings
6 8 10 12 13 14 16 rings

>  <PUBCHEM_HEAVY_ATOM_COUNT>
16

>  <PUBCHEM_ATOM_DEF_STEREO_COUNT>
1

>  <PUBCHEM_ATOM_UDEF_STEREO_COUNT>
0

>  <PUBCHEM_BOND_DEF_STEREO_COUNT>
0

>  <PUBCHEM_BOND_UDEF_STEREO_COUNT>
0

>  <PUBCHEM_ISOTOPIC_ATOM_COUNT>
0

>  <PUBCHEM_COMPONENT_COUNT>
1

>  <PUBCHEM_CACTVS_TAUTO_COUNT>
1

>  <PUBCHEM_CONFORMER_ID>
00998B6500000001

>  <PUBCHEM_MMFF94_ENERGY>
20.8722

>  <PUBCHEM_FEATURE_SELFOVERLAP>
45.82

>  <PUBCHEM_SHAPE_FINGERPRINT>
11640471 11 17897169241496700116
13380535 76 18410294670933973003
13583140 156 17168139023420613315
15775835 57 18334019405910167348
16945 1 18337673005782027651
17134986 127 18410578374618668357
18186145 218 18272381870667978737
20645476 183 18408598171668519395
21524375 3 18335423447925303731
22094290 62 18335419058584713298
231179 274 17968653805271512917
23175994 123 15647323105745291258
23402539 116 18059846273108328044
23419403 2 16323922072468417122
23557571 272 17560515230569604782
23559900 14 17988921185422784794
2748010 2 17333914852425149699
3060560 45 18339643317565256630
474 4 18261115132279299961
537710 114 18271523105348421913
58051976 378 18270678667464673221
7364860 26 18127694816149601031
7832392 63 18408881875901580972
9981440 41 17542499887853393528

>  <PUBCHEM_SHAPE_MULTIPOLES>
309.44
6.42
2.24
0.96
1.9
0.59
-0.15
-3.38
-0.1
-0.14
-0.26
-0.32
-0.17
-0.59

>  <PUBCHEM_SHAPE_SELFOVERLAP>
658.007

>  <PUBCHEM_SHAPE_VOLUME>
174.4

>  <PUBCHEM_COORDINATE_TYPE>
2
5
10

$$$$
10062693
 OpenBabel12092211553D

 27 28  0  0  1  0  0  0  0  0999 V2000
   -4.6519    1.4032   -0.1345 Cl  0  0  0  0  0  0  0  0  0  0  0  0
    1.6776    0.3128    4.2218 O   0  0  0  0  0  0  0  0  0  0  0  0
   -0.0937   -0.6873    3.2201 O   0  0  0  0  0  0  0  0  0  0  0  0
   -1.0263   -2.3226   -0.5460 N   0  0  0  0  0  0  0  0  0  0  0  0
    1.9899   -2.6465    2.6440 N   0  0  0  0  0  0  0  0  0  0  0  0
    0.6326   -1.1967    0.4063 C   0  0  0  0  0  0  0  0  0  0  0  0
    1.9626   -0.8486    0.9462 C   0  0  0  0  0  0  0  0  0  0  0  0
   -0.5212   -0.3639    0.3950 C   0  0  0  0  0  0  0  0  0  0  0  0
    2.1580   -1.2055    2.4380 C   0  0  1  0  0  0  0  0  0  0  0  0
   -1.5477   -1.0942   -0.2078 C   0  0  0  0  0  0  0  0  0  0  0  0
    0.2906   -2.3941   -0.1788 C   0  0  0  0  0  0  0  0  0  0  0  0
   -0.7916    0.9450    0.8409 C   0  0  0  0  0  0  0  0  0  0  0  0
   -2.8363   -0.5787   -0.3876 C   0  0  0  0  0  0  0  0  0  0  0  0
   -2.0759    1.4737    0.6678 C   0  0  0  0  0  0  0  0  0  0  0  0
    1.1160   -0.5160    3.3028 C   0  0  0  0  0  0  0  0  0  0  0  0
   -3.0811    0.7218    0.0626 C   0  0  0  0  0  0  0  0  0  0  0  0
    2.1307    0.2291    0.8127 H   0  0  0  0  0  0  0  0  0  0  0  0
    2.7363   -1.3455    0.3448 H   0  0  0  0  0  0  0  0  0  0  0  0
    3.1583   -0.9168    2.7813 H   0  0  0  0  0  0  0  0  0  0  0  0
    0.8646   -3.2906   -0.3681 H   0  0  0  0  0  0  0  0  0  0  0  0
   -1.5419   -3.0639   -1.0000 H   0  0  0  0  0  0  0  0  0  0  0  0
   -0.0235    1.5447    1.3203 H   0  0  0  0  0  0  0  0  0  0  0  0
   -3.6113   -1.1739   -0.8604 H   0  0  0  0  0  0  0  0  0  0  0  0
   -2.2756    2.4845    1.0165 H   0  0  0  0  0  0  0  0  0  0  0  0
    2.2059   -2.8802    3.6127 H   0  0  0  0  0  0  0  0  0  0  0  0
    2.6658   -3.1528    2.0731 H   0  0  0  0  0  0  0  0  0  0  0  0
    1.0008    0.7496    4.7815 H   0  0  0  0  0  0  0  0  0  0  0  0
  1 16  1  0  0  0  0
  2 15  1  0  0  0  0
  2 27  1  0  0  0  0
  3 15  2  0  0  0  0
  4 10  1  0  0  0  0
  4 11  1  0  0  0  0
  4 21  1  0  0  0  0
  5  9  1  0  0  0  0
  5 25  1  0  0  0  0
  5 26  1  0  0  0  0
  6  7  1  0  0  0  0
  6  8  1  0  0  0  0
  6 11  2  0  0  0  0
  7  9  1  0  0  0  0
  7 17  1  0  0  0  0
  7 18  1  0  0  0  0
  8 10  2  0  0  0  0
  8 12  1  0  0  0  0
  9 15  1  0  0  0  0
  9 19  1  1  0  0  0
 10 13  1  0  0  0  0
 11 20  1  0  0  0  0
 12 14  2  0  0  0  0
 12 22  1  0  0  0  0
 13 16  2  0  0  0  0
 13 23  1  0  0  0  0
 14 16  1  0  0  0  0
 14 24  1  0  0  0  0
M  END
>  <PUBCHEM_COMPOUND_CID>
10062693

>  <PUBCHEM_CONFORMER_RMSD>
0.6

>  <PUBCHEM_CONFORMER_DIVERSEORDER>
1
17
14
15
6
5
11
16
19
12
9
13
18
7
3
2
4
8
10

>  <PUBCHEM_MMFF94_PARTIAL_CHARGES>
23
1 -0.18
10 -0.15
11 -0.3
12 -0.15
13 -0.15
14 -0.15
15 0.66
16 0.18
2 -0.65
20 0.15
21 0.27
22 0.15
23 0.15
24 0.15
25 0.36
26 0.36
27 0.5
3 -0.57
4 0.03
5 -0.99
6 -0.18
7 0.18
9 0.33

>  <PUBCHEM_EFFECTIVE_ROTOR_COUNT>
3

>  <PUBCHEM_PHARMACOPHORE_FEATURES>
9
1 2 acceptor
1 3 acceptor
1 4 cation
1 4 donor
1 5 cation
1 5 donor
3 2 3 15 anion
5 4 6 8 10 11 rings
6 8 10 12 13 14 16 rings

>  <PUBCHEM_HEAVY_ATOM_COUNT>
16

>  <PUBCHEM_ATOM_DEF_STEREO_COUNT>
1

>  <PUBCHEM_ATOM_UDEF_STEREO_COUNT>
0

>  <PUBCHEM_BOND_DEF_STEREO_COUNT>
0

>  <PUBCHEM_BOND_UDEF_STEREO_COUNT>
0

>  <PUBCHEM_ISOTOPIC_ATOM_COUNT>
0

>  <PUBCHEM_COMPONENT_COUNT>
1

>  <PUBCHEM_CACTVS_TAUTO_COUNT>
1

>  <PUBCHEM_CONFORMER_ID>
00998B6500000001

>  <PUBCHEM_MMFF94_ENERGY>
20.8722

>  <PUBCHEM_FEATURE_SELFOVERLAP>
45.82

>  <PUBCHEM_SHAPE_FINGERPRINT>
11640471 11 17897169241496700116
13380535 76 18410294670933973003
13583140 156 17168139023420613315
15775835 57 18334019405910167348
16945 1 18337673005782027651
17134986 127 18410578374618668357
18186145 218 18272381870667978737
20645476 183 18408598171668519395
21524375 3 18335423447925303731
22094290 62 18335419058584713298
231179 274 17968653805271512917
23175994 123 15647323105745291258
23402539 116 18059846273108328044
23419403 2 16323922072468417122
23557571 272 17560515230569604782
23559900 14 17988921185422784794
2748010 2 17333914852425149699
3060560 45 18339643317565256630
474 4 18261115132279299961
537710 114 18271523105348421913
58051976 378 18270678667464673221
7364860 26 18127694816149601031
7832392 63 18408881875901580972
9981440 41 17542499887853393528

>  <PUBCHEM_SHAPE_MULTIPOLES>
309.44
6.42
2.24
0.96
1.9
0.59
-0.15
-3.38
-0.1
-0.14
-0.26
-0.32
-0.17
-0.59

>  <PUBCHEM_SHAPE_SELFOVERLAP>
658.007

>  <PUBCHEM_SHAPE_VOLUME>
174.4

>  <PUBCHEM_COORDINATE_TYPE>
2
5
10

$$$$
10062693
 OpenBabel12092211553D

 27 28  0  0  1  0  0  0  0  0999 V2000
   -4.6519    1.4032   -0.1345 Cl  0  0  0  0  0  0  0  0  0  0  0  0
    2.2663   -2.2592    3.8200 O   0  0  0  0  0  0  0  0  0  0  0  0
    1.2318   -3.7093    2.4172 O   0  0  0  0  0  0  0  0  0  0  0  0
   -1.0263   -2.3226   -0.5460 N   0  0  0  0  0  0  0  0  0  0  0  0
    2.9917   -3.0368    0.4279 N   0  0  0  0  0  0  0  0  0  0  0  0
    0.6326   -1.1967    0.4063 C   0  0  0  0  0  0  0  0  0  0  0  0
    1.9626   -0.8486    0.9462 C   0  0  0  0  0  0  0  0  0  0  0  0
   -0.5212   -0.3639    0.3950 C   0  0  0  0  0  0  0  0  0  0  0  0
    2.7646   -2.0535    1.4903 C   0  0  1  0  0  0  0  0  0  0  0  0
   -1.5477   -1.0942   -0.2078 C   0  0  0  0  0  0  0  0  0  0  0  0
    0.2906   -2.3941   -0.1788 C   0  0  0  0  0  0  0  0  0  0  0  0
   -0.7916    0.9450    0.8409 C   0  0  0  0  0  0  0  0  0  0  0  0
   -2.8363   -0.5787   -0.3876 C   0  0  0  0  0  0  0  0  0  0  0  0
   -2.0759    1.4737    0.6678 C   0  0  0  0  0  0  0  0  0  0  0  0
    1.9949   -2.7671    2.5891 C   0  0  0  0  0  0  0  0  0  0  0  0
   -3.0811    0.7218    0.0626 C   0  0  0  0  0  0  0  0  0  0  0  0
    1.8388   -0.1104    1.7507 H   0  0  0  0  0  0  0  0  0  0  0  0
    2.5460   -0.3407    0.1658 H   0  0  0  0  0  0  0  0  0  0  0  0
    3.7362   -1.7312    1.8829 H   0  0  0  0  0  0  0  0  0  0  0  0
    0.8646   -3.2906   -0.3681 H   0  0  0  0  0  0  0  0  0  0  0  0
   -1.5419   -3.0639   -1.0000 H   0  0  0  0  0  0  0  0  0  0  0  0
   -0.0235    1.5447    1.3203 H   0  0  0  0  0  0  0  0  0  0  0  0
   -3.6113   -1.1739   -0.8604 H   0  0  0  0  0  0  0  0  0  0  0  0
   -2.2756    2.4845    1.0165 H   0  0  0  0  0  0  0  0  0  0  0  0
    3.5935   -3.7825    0.7762 H   0  0  0  0  0  0  0  0  0  0  0  0
    3.4997   -2.5977   -0.3389 H   0  0  0  0  0  0  0  0  0  0  0  0
    1.7722   -2.7282    4.5257 H   0  0  0  0  0  0  0  0  0  0  0  0
  1 16  1  0  0  0  0
  2 15  1  0  0  0  0
  2 27  1  0  0  0  0
  3 15  2  0  0  0  0
  4 10  1  0  0  0  0
  4 11  1  0  0  0  0
  4 21  1  0  0  0  0
  5  9  1  0  0  0  0
  5 25  1  0  0  0  0
  5 26  1  0  0  0  0
  6  7  1  0  0  0  0
  6  8  1  0  0  0  0
  6 11  2  0  0  0  0
  7  9  1  0  0  0  0
  7 17  1  0  0  0  0
  7 18  1  0  0  0  0
  8 10  2  0  0  0  0
  8 12  1  0  0  0  0
  9 15  1  0  0  0  0
  9 19  1  1  0  0  0
 10 13  1  0  0  0  0
 11 20  1  0  0  0  0
 12 14  2  0  0  0  0
 12 22  1  0  0  0  0
 13 16  2  0  0  0  0
 13 23  1  0  0  0  0
 14 16  1  0  0  0  0
 14 24  1  0  0  0  0
M  END
>  <PUBCHEM_COMPOUND_CID>
10062693

>  <PUBCHEM_CONFORMER_RMSD>
0.6

>  <PUBCHEM_CONFORMER_DIVERSEORDER>
1
17
14
15
6
5
11
16
19
12
9
13
18
7
3
2
4
8
10

>  <PUBCHEM_MMFF94_PARTIAL_CHARGES>
23
1 -0.18
10 -0.15
11 -0.3
12 -0.15
13 -0.15
14 -0.15
15 0.66
16 0.18
2 -0.65
20 0.15
21 0.27
22 0.15
23 0.15
24 0.15
25 0.36
26 0.36
27 0.5
3 -0.57
4 0.03
5 -0.99
6 -0.18
7 0.18
9 0.33

>  <PUBCHEM_EFFECTIVE_ROTOR_COUNT>
3

>  <PUBCHEM_PHARMACOPHORE_FEATURES>
9
1 2 acceptor
1 3 acceptor
1 4 cation
1 4 donor
1 5 cation
1 5 donor
3 2 3 15 anion
5 4 6 8 10 11 rings
6 8 10 12 13 14 16 rings

>  <PUBCHEM_HEAVY_ATOM_COUNT>
16

>  <PUBCHEM_ATOM_DEF_STEREO_COUNT>
1

>  <PUBCHEM_ATOM_UDEF_STEREO_COUNT>
0

>  <PUBCHEM_BOND_DEF_STEREO_COUNT>
0

>  <PUBCHEM_BOND_UDEF_STEREO_COUNT>
0

>  <PUBCHEM_ISOTOPIC_ATOM_COUNT>
0

>  <PUBCHEM_COMPONENT_COUNT>
1

>  <PUBCHEM_CACTVS_TAUTO_COUNT>
1

>  <PUBCHEM_CONFORMER_ID>
00998B6500000001

>  <PUBCHEM_MMFF94_ENERGY>
20.8722

>  <PUBCHEM_FEATURE_SELFOVERLAP>
45.82

>  <PUBCHEM_SHAPE_FINGERPRINT>
11640471 11 17897169241496700116
13380535 76 18410294670933973003
13583140 156 17168139023420613315
15775835 57 18334019405910167348
16945 1 18337673005782027651
17134986 127 18410578374618668357
18186145 218 18272381870667978737
20645476 183 18408598171668519395
21524375 3 18335423447925303731
22094290 62 18335419058584713298
231179 274 17968653805271512917
23175994 123 15647323105745291258
23402539 116 18059846273108328044
23419403 2 16323922072468417122
23557571 272 17560515230569604782
23559900 14 17988921185422784794
2748010 2 17333914852425149699
3060560 45 18339643317565256630
474 4 18261115132279299961
537710 114 18271523105348421913
58051976 378 18270678667464673221
7364860 26 18127694816149601031
7832392 63 18408881875901580972
9981440 41 17542499887853393528

>  <PUBCHEM_SHAPE_MULTIPOLES>
309.44
6.42
2.24
0.96
1.9
0.59
-0.15
-3.38
-0.1
-0.14
-0.26
-0.32
-0.17
-0.59

>  <PUBCHEM_SHAPE_SELFOVERLAP>
658.007

>  <PUBCHEM_SHAPE_VOLUME>
174.4

>  <PUBCHEM_COORDINATE_TYPE>
2
5
10

$$$$
10062693
 OpenBabel12092211553D

 27 28  0  0  1  0  0  0  0  0999 V2000
   -4.6519    1.4032   -0.1345 Cl  0  0  0  0  0  0  0  0  0  0  0  0
    4.1708   -0.6889    2.4693 O   0  0  0  0  0  0  0  0  0  0  0  0
    5.4456   -1.9089    1.0455 O   0  0  0  0  0  0  0  0  0  0  0  0
   -1.0263   -2.3226   -0.5460 N   0  0  0  0  0  0  0  0  0  0  0  0
    2.5805   -3.1715    1.5277 N   0  0  0  0  0  0  0  0  0  0  0  0
    0.6326   -1.1967    0.4063 C   0  0  0  0  0  0  0  0  0  0  0  0
    1.9626   -0.8486    0.9462 C   0  0  0  0  0  0  0  0  0  0  0  0
   -0.5212   -0.3639    0.3950 C   0  0  0  0  0  0  0  0  0  0  0  0
    3.0184   -1.9703    0.8117 C   0  0  1  0  0  0  0  0  0  0  0  0
   -1.5477   -1.0942   -0.2078 C   0  0  0  0  0  0  0  0  0  0  0  0
    0.2906   -2.3941   -0.1788 C   0  0  0  0  0  0  0  0  0  0  0  0
   -0.7916    0.9450    0.8409 C   0  0  0  0  0  0  0  0  0  0  0  0
   -2.8363   -0.5787   -0.3876 C   0  0  0  0  0  0  0  0  0  0  0  0
   -2.0759    1.4737    0.6678 C   0  0  0  0  0  0  0  0  0  0  0  0
    4.3404   -1.5496    1.4315 C   0  0  0  0  0  0  0  0  0  0  0  0
   -3.0811    0.7218    0.0626 C   0  0  0  0  0  0  0  0  0  0  0  0
    1.8583   -0.5829    2.0073 H   0  0  0  0  0  0  0  0  0  0  0  0
    2.3264    0.0606    0.4480 H   0  0  0  0  0  0  0  0  0  0  0  0
    3.1812   -2.2297   -0.2410 H   0  0  0  0  0  0  0  0  0  0  0  0
    0.8646   -3.2906   -0.3681 H   0  0  0  0  0  0  0  0  0  0  0  0
   -1.5419   -3.0639   -1.0000 H   0  0  0  0  0  0  0  0  0  0  0  0
   -0.0235    1.5447    1.3203 H   0  0  0  0  0  0  0  0  0  0  0  0
   -3.6113   -1.1739   -0.8604 H   0  0  0  0  0  0  0  0  0  0  0  0
   -2.2756    2.4845    1.0165 H   0  0  0  0  0  0  0  0  0  0  0  0
    3.2419   -3.9290    1.3596 H   0  0  0  0  0  0  0  0  0  0  0  0
    1.6876   -3.4861    1.1498 H   0  0  0  0  0  0  0  0  0  0  0  0
    5.0276   -0.4154    2.8607 H   0  0  0  0  0  0  0  0  0  0  0  0
  1 16  1  0  0  0  0
  2 15  1  0  0  0  0
  2 27  1  0  0  0  0
  3 15  2  0  0  0  0
  4 10  1  0  0  0  0
  4 11  1  0  0  0  0
  4 21  1  0  0  0  0
  5  9  1  0  0  0  0
  5 25  1  0  0  0  0
  5 26  1  0  0  0  0
  6  7  1  0  0  0  0
  6  8  1  0  0  0  0
  6 11  2  0  0  0  0
  7  9  1  0  0  0  0
  7 17  1  0  0  0  0
  7 18  1  0  0  0  0
  8 10  2  0  0  0  0
  8 12  1  0  0  0  0
  9 15  1  0  0  0  0
  9 19  1  6  0  0  0
 10 13  1  0  0  0  0
 11 20  1  0  0  0  0
 12 14  2  0  0  0  0
 12 22  1  0  0  0  0
 13 16  2  0  0  0  0
 13 23  1  0  0  0  0
 14 16  1  0  0  0  0
 14 24  1  0  0  0  0
M  END
>  <PUBCHEM_COMPOUND_CID>
10062693

>  <PUBCHEM_CONFORMER_RMSD>
0.6

>  <PUBCHEM_CONFORMER_DIVERSEORDER>
1
17
14
15
6
5
11
16
19
12
9
13
18
7
3
2
4
8
10

>  <PUBCHEM_MMFF94_PARTIAL_CHARGES>
23
1 -0.18
10 -0.15
11 -0.3
12 -0.15
13 -0.15
14 -0.15
15 0.66
16 0.18
2 -0.65
20 0.15
21 0.27
22 0.15
23 0.15
24 0.15
25 0.36
26 0.36
27 0.5
3 -0.57
4 0.03
5 -0.99
6 -0.18
7 0.18
9 0.33

>  <PUBCHEM_EFFECTIVE_ROTOR_COUNT>
3

>  <PUBCHEM_PHARMACOPHORE_FEATURES>
9
1 2 acceptor
1 3 acceptor
1 4 cation
1 4 donor
1 5 cation
1 5 donor
3 2 3 15 anion
5 4 6 8 10 11 rings
6 8 10 12 13 14 16 rings

>  <PUBCHEM_HEAVY_ATOM_COUNT>
16

>  <PUBCHEM_ATOM_DEF_STEREO_COUNT>
1

>  <PUBCHEM_ATOM_UDEF_STEREO_COUNT>
0

>  <PUBCHEM_BOND_DEF_STEREO_COUNT>
0

>  <PUBCHEM_BOND_UDEF_STEREO_COUNT>
0

>  <PUBCHEM_ISOTOPIC_ATOM_COUNT>
0

>  <PUBCHEM_COMPONENT_COUNT>
1

>  <PUBCHEM_CACTVS_TAUTO_COUNT>
1

>  <PUBCHEM_CONFORMER_ID>
00998B6500000001

>  <PUBCHEM_MMFF94_ENERGY>
20.8722

>  <PUBCHEM_FEATURE_SELFOVERLAP>
45.82

>  <PUBCHEM_SHAPE_FINGERPRINT>
11640471 11 17897169241496700116
13380535 76 18410294670933973003
13583140 156 17168139023420613315
15775835 57 18334019405910167348
16945 1 18337673005782027651
17134986 127 18410578374618668357
18186145 218 18272381870667978737
20645476 183 18408598171668519395
21524375 3 18335423447925303731
22094290 62 18335419058584713298
231179 274 17968653805271512917
23175994 123 15647323105745291258
23402539 116 18059846273108328044
23419403 2 16323922072468417122
23557571 272 17560515230569604782
23559900 14 17988921185422784794
2748010 2 17333914852425149699
3060560 45 18339643317565256630
474 4 18261115132279299961
537710 114 18271523105348421913
58051976 378 18270678667464673221
7364860 26 18127694816149601031
7832392 63 18408881875901580972
9981440 41 17542499887853393528

>  <PUBCHEM_SHAPE_MULTIPOLES>
309.44
6.42
2.24
0.96
1.9
0.59
-0.15
-3.38
-0.1
-0.14
-0.26
-0.32
-0.17
-0.59

>  <PUBCHEM_SHAPE_SELFOVERLAP>
658.007

>  <PUBCHEM_SHAPE_VOLUME>
174.4

>  <PUBCHEM_COORDINATE_TYPE>
2
5
10

$$$$
10062693
 OpenBabel12092211553D

 27 28  0  0  1  0  0  0  0  0999 V2000
   -4.6519    1.4032   -0.1345 Cl  0  0  0  0  0  0  0  0  0  0  0  0
    0.2352   -2.2081    2.8763 O   0  0  0  0  0  0  0  0  0  0  0  0
    1.7230   -1.3992    4.3839 O   0  0  0  0  0  0  0  0  0  0  0  0
   -1.0263   -2.3226   -0.5460 N   0  0  0  0  0  0  0  0  0  0  0  0
    2.5417   -3.1581    1.6147 N   0  0  0  0  0  0  0  0  0  0  0  0
    0.6326   -1.1967    0.4063 C   0  0  0  0  0  0  0  0  0  0  0  0
    1.9626   -0.8486    0.9462 C   0  0  0  0  0  0  0  0  0  0  0  0
   -0.5212   -0.3639    0.3950 C   0  0  0  0  0  0  0  0  0  0  0  0
    2.4497   -1.7735    2.0856 C   0  0  1  0  0  0  0  0  0  0  0  0
   -1.5477   -1.0942   -0.2078 C   0  0  0  0  0  0  0  0  0  0  0  0
    0.2906   -2.3941   -0.1788 C   0  0  0  0  0  0  0  0  0  0  0  0
   -0.7916    0.9450    0.8409 C   0  0  0  0  0  0  0  0  0  0  0  0
   -2.8363   -0.5787   -0.3876 C   0  0  0  0  0  0  0  0  0  0  0  0
   -2.0759    1.4737    0.6678 C   0  0  0  0  0  0  0  0  0  0  0  0
    1.4678   -1.7707    3.2453 C   0  0  0  0  0  0  0  0  0  0  0  0
   -3.0811    0.7218    0.0626 C   0  0  0  0  0  0  0  0  0  0  0  0
    1.9385    0.1868    1.3135 H   0  0  0  0  0  0  0  0  0  0  0  0
    2.6960   -0.8553    0.1281 H   0  0  0  0  0  0  0  0  0  0  0  0
    3.4357   -1.4607    2.4486 H   0  0  0  0  0  0  0  0  0  0  0  0
    0.8646   -3.2906   -0.3681 H   0  0  0  0  0  0  0  0  0  0  0  0
   -1.5419   -3.0639   -1.0000 H   0  0  0  0  0  0  0  0  0  0  0  0
   -0.0235    1.5447    1.3203 H   0  0  0  0  0  0  0  0  0  0  0  0
   -3.6113   -1.1739   -0.8604 H   0  0  0  0  0  0  0  0  0  0  0  0
   -2.2756    2.4845    1.0165 H   0  0  0  0  0  0  0  0  0  0  0  0
    2.9451   -3.7415    2.3471 H   0  0  0  0  0  0  0  0  0  0  0  0
    3.1861   -3.2071    0.8265 H   0  0  0  0  0  0  0  0  0  0  0  0
   -0.3960   -2.1975    3.6271 H   0  0  0  0  0  0  0  0  0  0  0  0
  1 16  1  0  0  0  0
  2 15  1  0  0  0  0
  2 27  1  0  0  0  0
  3 15  2  0  0  0  0
  4 10  1  0  0  0  0
  4 11  1  0  0  0  0
  4 21  1  0  0  0  0
  5  9  1  0  0  0  0
  5 25  1  0  0  0  0
  5 26  1  0  0  0  0
  6  7  1  0  0  0  0
  6  8  1  0  0  0  0
  6 11  2  0  0  0  0
  7  9  1  0  0  0  0
  7 17  1  0  0  0  0
  7 18  1  0  0  0  0
  8 10  2  0  0  0  0
  8 12  1  0  0  0  0
  9 15  1  0  0  0  0
  9 19  1  1  0  0  0
 10 13  1  0  0  0  0
 11 20  1  0  0  0  0
 12 14  2  0  0  0  0
 12 22  1  0  0  0  0
 13 16  2  0  0  0  0
 13 23  1  0  0  0  0
 14 16  1  0  0  0  0
 14 24  1  0  0  0  0
M  END
>  <PUBCHEM_COMPOUND_CID>
10062693

>  <PUBCHEM_CONFORMER_RMSD>
0.6

>  <PUBCHEM_CONFORMER_DIVERSEORDER>
1
17
14
15
6
5
11
16
19
12
9
13
18
7
3
2
4
8
10

>  <PUBCHEM_MMFF94_PARTIAL_CHARGES>
23
1 -0.18
10 -0.15
11 -0.3
12 -0.15
13 -0.15
14 -0.15
15 0.66
16 0.18
2 -0.65
20 0.15
21 0.27
22 0.15
23 0.15
24 0.15
25 0.36
26 0.36
27 0.5
3 -0.57
4 0.03
5 -0.99
6 -0.18
7 0.18
9 0.33

>  <PUBCHEM_EFFECTIVE_ROTOR_COUNT>
3

>  <PUBCHEM_PHARMACOPHORE_FEATURES>
9
1 2 acceptor
1 3 acceptor
1 4 cation
1 4 donor
1 5 cation
1 5 donor
3 2 3 15 anion
5 4 6 8 10 11 rings
6 8 10 12 13 14 16 rings

>  <PUBCHEM_HEAVY_ATOM_COUNT>
16

>  <PUBCHEM_ATOM_DEF_STEREO_COUNT>
1

>  <PUBCHEM_ATOM_UDEF_STEREO_COUNT>
0

>  <PUBCHEM_BOND_DEF_STEREO_COUNT>
0

>  <PUBCHEM_BOND_UDEF_STEREO_COUNT>
0

>  <PUBCHEM_ISOTOPIC_ATOM_COUNT>
0

>  <PUBCHEM_COMPONENT_COUNT>
1

>  <PUBCHEM_CACTVS_TAUTO_COUNT>
1

>  <PUBCHEM_CONFORMER_ID>
00998B6500000001

>  <PUBCHEM_MMFF94_ENERGY>
20.8722

>  <PUBCHEM_FEATURE_SELFOVERLAP>
45.82

>  <PUBCHEM_SHAPE_FINGERPRINT>
11640471 11 17897169241496700116
13380535 76 18410294670933973003
13583140 156 17168139023420613315
15775835 57 18334019405910167348
16945 1 18337673005782027651
17134986 127 18410578374618668357
18186145 218 18272381870667978737
20645476 183 18408598171668519395
21524375 3 18335423447925303731
22094290 62 18335419058584713298
231179 274 17968653805271512917
23175994 123 15647323105745291258
23402539 116 18059846273108328044
23419403 2 16323922072468417122
23557571 272 17560515230569604782
23559900 14 17988921185422784794
2748010 2 17333914852425149699
3060560 45 18339643317565256630
474 4 18261115132279299961
537710 114 18271523105348421913
58051976 378 18270678667464673221
7364860 26 18127694816149601031
7832392 63 18408881875901580972
9981440 41 17542499887853393528

>  <PUBCHEM_SHAPE_MULTIPOLES>
309.44
6.42
2.24
0.96
1.9
0.59
-0.15
-3.38
-0.1
-0.14
-0.26
-0.32
-0.17
-0.59

>  <PUBCHEM_SHAPE_SELFOVERLAP>
658.007

>  <PUBCHEM_SHAPE_VOLUME>
174.4

>  <PUBCHEM_COORDINATE_TYPE>
2
5
10

$$$$
10062693
 OpenBabel12092211553D

 27 28  0  0  1  0  0  0  0  0999 V2000
   -4.6519    1.4032   -0.1345 Cl  0  0  0  0  0  0  0  0  0  0  0  0
    3.1612    1.7229   -1.4915 O   0  0  0  0  0  0  0  0  0  0  0  0
    1.2929    1.6261   -0.2105 O   0  0  0  0  0  0  0  0  0  0  0  0
   -1.0263   -2.3226   -0.5460 N   0  0  0  0  0  0  0  0  0  0  0  0
    4.2038    0.1167    0.5449 N   0  0  0  0  0  0  0  0  0  0  0  0
    0.6326   -1.1967    0.4063 C   0  0  0  0  0  0  0  0  0  0  0  0
    1.9626   -0.8486    0.9462 C   0  0  0  0  0  0  0  0  0  0  0  0
   -0.5212   -0.3639    0.3950 C   0  0  0  0  0  0  0  0  0  0  0  0
    2.9146   -0.1914   -0.0798 C   0  0  1  0  0  0  0  0  0  0  0  0
   -1.5477   -1.0942   -0.2078 C   0  0  0  0  0  0  0  0  0  0  0  0
    0.2906   -2.3941   -0.1788 C   0  0  0  0  0  0  0  0  0  0  0  0
   -0.7916    0.9450    0.8409 C   0  0  0  0  0  0  0  0  0  0  0  0
   -2.8363   -0.5787   -0.3876 C   0  0  0  0  0  0  0  0  0  0  0  0
   -2.0759    1.4737    0.6678 C   0  0  0  0  0  0  0  0  0  0  0  0
    2.3467    1.1254   -0.5824 C   0  0  0  0  0  0  0  0  0  0  0  0
   -3.0811    0.7218    0.0626 C   0  0  0  0  0  0  0  0  0  0  0  0
    2.4367   -1.7582    1.3404 H   0  0  0  0  0  0  0  0  0  0  0  0
    1.8368   -0.1822    1.8107 H   0  0  0  0  0  0  0  0  0  0  0  0
    3.0891   -0.8569   -0.9334 H   0  0  0  0  0  0  0  0  0  0  0  0
    0.8646   -3.2906   -0.3681 H   0  0  0  0  0  0  0  0  0  0  0  0
   -1.5419   -3.0639   -1.0000 H   0  0  0  0  0  0  0  0  0  0  0  0
   -0.0235    1.5447    1.3203 H   0  0  0  0  0  0  0  0  0  0  0  0
   -3.6113   -1.1739   -0.8604 H   0  0  0  0  0  0  0  0  0  0  0  0
   -2.2756    2.4845    1.0165 H   0  0  0  0  0  0  0  0  0  0  0  0
    4.8496    0.4687   -0.1611 H   0  0  0  0  0  0  0  0  0  0  0  0
    4.6198   -0.7405    0.9070 H   0  0  0  0  0  0  0  0  0  0  0  0
    2.7929    2.5755   -1.8070 H   0  0  0  0  0  0  0  0  0  0  0  0
  1 16  1  0  0  0  0
  2 15  1  0  0  0  0
  2 27  1  0  0  0  0
  3 15  2  0  0  0  0
  4 10  1  0  0  0  0
  4 11  1  0  0  0  0
  4 21  1  0  0  0  0
  5  9  1  0  0  0  0
  5 25  1  0  0  0  0
  5 26  1  0  0  0  0
  6  7  1  0  0  0  0
  6  8  1  0  0  0  0
  6 11  2  0  0  0  0
  7  9  1  0  0  0  0
  7 17  1  0  0  0  0
  7 18  1  0  0  0  0
  8 10  2  0  0  0  0
  8 12  1  0  0  0  0
  9 15  1  0  0  0  0
  9 19  1  6  0  0  0
 10 13  1  0  0  0  0
 11 20  1  0  0  0  0
 12 14  2  0  0  0  0
 12 22  1  0  0  0  0
 13 16  2  0  0  0  0
 13 23  1  0  0  0  0
 14 16  1  0  0  0  0
 14 24  1  0  0  0  0
M  END
>  <PUBCHEM_COMPOUND_CID>
10062693

>  <PUBCHEM_CONFORMER_RMSD>
0.6

>  <PUBCHEM_CONFORMER_DIVERSEORDER>
1
17
14
15
6
5
11
16
19
12
9
13
18
7
3
2
4
8
10

>  <PUBCHEM_MMFF94_PARTIAL_CHARGES>
23
1 -0.18
10 -0.15
11 -0.3
12 -0.15
13 -0.15
14 -0.15
15 0.66
16 0.18
2 -0.65
20 0.15
21 0.27
22 0.15
23 0.15
24 0.15
25 0.36
26 0.36
27 0.5
3 -0.57
4 0.03
5 -0.99
6 -0.18
7 0.18
9 0.33

>  <PUBCHEM_EFFECTIVE_ROTOR_COUNT>
3

>  <PUBCHEM_PHARMACOPHORE_FEATURES>
9
1 2 acceptor
1 3 acceptor
1 4 cation
1 4 donor
1 5 cation
1 5 donor
3 2 3 15 anion
5 4 6 8 10 11 rings
6 8 10 12 13 14 16 rings

>  <PUBCHEM_HEAVY_ATOM_COUNT>
16

>  <PUBCHEM_ATOM_DEF_STEREO_COUNT>
1

>  <PUBCHEM_ATOM_UDEF_STEREO_COUNT>
0

>  <PUBCHEM_BOND_DEF_STEREO_COUNT>
0

>  <PUBCHEM_BOND_UDEF_STEREO_COUNT>
0

>  <PUBCHEM_ISOTOPIC_ATOM_COUNT>
0

>  <PUBCHEM_COMPONENT_COUNT>
1

>  <PUBCHEM_CACTVS_TAUTO_COUNT>
1

>  <PUBCHEM_CONFORMER_ID>
00998B6500000001

>  <PUBCHEM_MMFF94_ENERGY>
20.8722

>  <PUBCHEM_FEATURE_SELFOVERLAP>
45.82

>  <PUBCHEM_SHAPE_FINGERPRINT>
11640471 11 17897169241496700116
13380535 76 18410294670933973003
13583140 156 17168139023420613315
15775835 57 18334019405910167348
16945 1 18337673005782027651
17134986 127 18410578374618668357
18186145 218 18272381870667978737
20645476 183 18408598171668519395
21524375 3 18335423447925303731
22094290 62 18335419058584713298
231179 274 17968653805271512917
23175994 123 15647323105745291258
23402539 116 18059846273108328044
23419403 2 16323922072468417122
23557571 272 17560515230569604782
23559900 14 17988921185422784794
2748010 2 17333914852425149699
3060560 45 18339643317565256630
474 4 18261115132279299961
537710 114 18271523105348421913
58051976 378 18270678667464673221
7364860 26 18127694816149601031
7832392 63 18408881875901580972
9981440 41 17542499887853393528

>  <PUBCHEM_SHAPE_MULTIPOLES>
309.44
6.42
2.24
0.96
1.9
0.59
-0.15
-3.38
-0.1
-0.14
-0.26
-0.32
-0.17
-0.59

>  <PUBCHEM_SHAPE_SELFOVERLAP>
658.007

>  <PUBCHEM_SHAPE_VOLUME>
174.4

>  <PUBCHEM_COORDINATE_TYPE>
2
5
10

$$$$
10062693
 OpenBabel12092211553D

 27 28  0  0  1  0  0  0  0  0999 V2000
   -4.6519    1.4032   -0.1345 Cl  0  0  0  0  0  0  0  0  0  0  0  0
    4.5404   -0.1332    1.2006 O   0  0  0  0  0  0  0  0  0  0  0  0
    4.0628    1.9469    1.9660 O   0  0  0  0  0  0  0  0  0  0  0  0
   -1.0263   -2.3226   -0.5460 N   0  0  0  0  0  0  0  0  0  0  0  0
    2.2927    1.1116   -0.5250 N   0  0  0  0  0  0  0  0  0  0  0  0
    0.6326   -1.1967    0.4063 C   0  0  0  0  0  0  0  0  0  0  0  0
    1.9626   -0.8486    0.9462 C   0  0  0  0  0  0  0  0  0  0  0  0
   -0.5212   -0.3639    0.3950 C   0  0  0  0  0  0  0  0  0  0  0  0
    2.3080    0.6566    0.8678 C   0  0  1  0  0  0  0  0  0  0  0  0
   -1.5477   -1.0942   -0.2078 C   0  0  0  0  0  0  0  0  0  0  0  0
    0.2906   -2.3941   -0.1788 C   0  0  0  0  0  0  0  0  0  0  0  0
   -0.7916    0.9450    0.8409 C   0  0  0  0  0  0  0  0  0  0  0  0
   -2.8363   -0.5787   -0.3876 C   0  0  0  0  0  0  0  0  0  0  0  0
   -2.0759    1.4737    0.6678 C   0  0  0  0  0  0  0  0  0  0  0  0
    3.7069    0.9216    1.3989 C   0  0  0  0  0  0  0  0  0  0  0  0
   -3.0811    0.7218    0.0626 C   0  0  0  0  0  0  0  0  0  0  0  0
    2.7286   -1.4187    0.4024 H   0  0  0  0  0  0  0  0  0  0  0  0
    2.0272   -1.1869    1.9896 H   0  0  0  0  0  0  0  0  0  0  0  0
    1.5874    1.2533    1.4393 H   0  0  0  0  0  0  0  0  0  0  0  0
    0.8646   -3.2906   -0.3681 H   0  0  0  0  0  0  0  0  0  0  0  0
   -1.5419   -3.0639   -1.0000 H   0  0  0  0  0  0  0  0  0  0  0  0
   -0.0235    1.5447    1.3203 H   0  0  0  0  0  0  0  0  0  0  0  0
   -3.6113   -1.1739   -0.8604 H   0  0  0  0  0  0  0  0  0  0  0  0
   -2.2756    2.4845    1.0165 H   0  0  0  0  0  0  0  0  0  0  0  0
    2.4361    2.1206   -0.5558 H   0  0  0  0  0  0  0  0  0  0  0  0
    1.3713    0.9441   -0.9274 H   0  0  0  0  0  0  0  0  0  0  0  0
    5.4396    0.0409    1.5516 H   0  0  0  0  0  0  0  0  0  0  0  0
  1 16  1  0  0  0  0
  2 15  1  0  0  0  0
  2 27  1  0  0  0  0
  3 15  2  0  0  0  0
  4 10  1  0  0  0  0
  4 11  1  0  0  0  0
  4 21  1  0  0  0  0
  5  9  1  0  0  0  0
  5 25  1  0  0  0  0
  5 26  1  0  0  0  0
  6  7  1  0  0  0  0
  6  8  1  0  0  0  0
  6 11  2  0  0  0  0
  7  9  1  0  0  0  0
  7 17  1  0  0  0  0
  7 18  1  0  0  0  0
  8 10  2  0  0  0  0
  8 12  1  0  0  0  0
  9 15  1  0  0  0  0
  9 19  1  1  0  0  0
 10 13  1  0  0  0  0
 11 20  1  0  0  0  0
 12 14  2  0  0  0  0
 12 22  1  0  0  0  0
 13 16  2  0  0  0  0
 13 23  1  0  0  0  0
 14 16  1  0  0  0  0
 14 24  1  0  0  0  0
M  END
>  <PUBCHEM_COMPOUND_CID>
10062693

>  <PUBCHEM_CONFORMER_RMSD>
0.6

>  <PUBCHEM_CONFORMER_DIVERSEORDER>
1
17
14
15
6
5
11
16
19
12
9
13
18
7
3
2
4
8
10

>  <PUBCHEM_MMFF94_PARTIAL_CHARGES>
23
1 -0.18
10 -0.15
11 -0.3
12 -0.15
13 -0.15
14 -0.15
15 0.66
16 0.18
2 -0.65
20 0.15
21 0.27
22 0.15
23 0.15
24 0.15
25 0.36
26 0.36
27 0.5
3 -0.57
4 0.03
5 -0.99
6 -0.18
7 0.18
9 0.33

>  <PUBCHEM_EFFECTIVE_ROTOR_COUNT>
3

>  <PUBCHEM_PHARMACOPHORE_FEATURES>
9
1 2 acceptor
1 3 acceptor
1 4 cation
1 4 donor
1 5 cation
1 5 donor
3 2 3 15 anion
5 4 6 8 10 11 rings
6 8 10 12 13 14 16 rings

>  <PUBCHEM_HEAVY_ATOM_COUNT>
16

>  <PUBCHEM_ATOM_DEF_STEREO_COUNT>
1

>  <PUBCHEM_ATOM_UDEF_STEREO_COUNT>
0

>  <PUBCHEM_BOND_DEF_STEREO_COUNT>
0

>  <PUBCHEM_BOND_UDEF_STEREO_COUNT>
0

>  <PUBCHEM_ISOTOPIC_ATOM_COUNT>
0

>  <PUBCHEM_COMPONENT_COUNT>
1

>  <PUBCHEM_CACTVS_TAUTO_COUNT>
1

>  <PUBCHEM_CONFORMER_ID>
00998B6500000001

>  <PUBCHEM_MMFF94_ENERGY>
20.8722

>  <PUBCHEM_FEATURE_SELFOVERLAP>
45.82

>  <PUBCHEM_SHAPE_FINGERPRINT>
11640471 11 17897169241496700116
13380535 76 18410294670933973003
13583140 156 17168139023420613315
15775835 57 18334019405910167348
16945 1 18337673005782027651
17134986 127 18410578374618668357
18186145 218 18272381870667978737
20645476 183 18408598171668519395
21524375 3 18335423447925303731
22094290 62 18335419058584713298
231179 274 17968653805271512917
23175994 123 15647323105745291258
23402539 116 18059846273108328044
23419403 2 16323922072468417122
23557571 272 17560515230569604782
23559900 14 17988921185422784794
2748010 2 17333914852425149699
3060560 45 18339643317565256630
474 4 18261115132279299961
537710 114 18271523105348421913
58051976 378 18270678667464673221
7364860 26 18127694816149601031
7832392 63 18408881875901580972
9981440 41 17542499887853393528

>  <PUBCHEM_SHAPE_MULTIPOLES>
309.44
6.42
2.24
0.96
1.9
0.59
-0.15
-3.38
-0.1
-0.14
-0.26
-0.32
-0.17
-0.59

>  <PUBCHEM_SHAPE_SELFOVERLAP>
658.007

>  <PUBCHEM_SHAPE_VOLUME>
174.4

>  <PUBCHEM_COORDINATE_TYPE>
2
5
10

$$$$
10062693
 OpenBabel12092211553D

 27 28  0  0  1  0  0  0  0  0999 V2000
   -4.6519    1.4032   -0.1345 Cl  0  0  0  0  0  0  0  0  0  0  0  0
    3.7107    1.1732    2.7343 O   0  0  0  0  0  0  0  0  0  0  0  0
    4.7266    0.9377    0.7210 O   0  0  0  0  0  0  0  0  0  0  0  0
   -1.0263   -2.3226   -0.5460 N   0  0  0  0  0  0  0  0  0  0  0  0
    2.2927    1.1116   -0.5250 N   0  0  0  0  0  0  0  0  0  0  0  0
    0.6326   -1.1967    0.4063 C   0  0  0  0  0  0  0  0  0  0  0  0
    1.9626   -0.8486    0.9462 C   0  0  0  0  0  0  0  0  0  0  0  0
   -0.5212   -0.3639    0.3950 C   0  0  0  0  0  0  0  0  0  0  0  0
    2.3080    0.6566    0.8678 C   0  0  1  0  0  0  0  0  0  0  0  0
   -1.5477   -1.0942   -0.2078 C   0  0  0  0  0  0  0  0  0  0  0  0
    0.2906   -2.3941   -0.1788 C   0  0  0  0  0  0  0  0  0  0  0  0
   -0.7916    0.9450    0.8409 C   0  0  0  0  0  0  0  0  0  0  0  0
   -2.8363   -0.5787   -0.3876 C   0  0  0  0  0  0  0  0  0  0  0  0
   -2.0759    1.4737    0.6678 C   0  0  0  0  0  0  0  0  0  0  0  0
    3.7069    0.9216    1.3989 C   0  0  0  0  0  0  0  0  0  0  0  0
   -3.0811    0.7218    0.0626 C   0  0  0  0  0  0  0  0  0  0  0  0
    2.7286   -1.4187    0.4024 H   0  0  0  0  0  0  0  0  0  0  0  0
    2.0272   -1.1869    1.9896 H   0  0  0  0  0  0  0  0  0  0  0  0
    1.5874    1.2533    1.4393 H   0  0  0  0  0  0  0  0  0  0  0  0
    0.8646   -3.2906   -0.3681 H   0  0  0  0  0  0  0  0  0  0  0  0
   -1.5419   -3.0639   -1.0000 H   0  0  0  0  0  0  0  0  0  0  0  0
   -0.0235    1.5447    1.3203 H   0  0  0  0  0  0  0  0  0  0  0  0
   -3.6113   -1.1739   -0.8604 H   0  0  0  0  0  0  0  0  0  0  0  0
   -2.2756    2.4845    1.0165 H   0  0  0  0  0  0  0  0  0  0  0  0
    2.4361    2.1206   -0.5558 H   0  0  0  0  0  0  0  0  0  0  0  0
    1.3713    0.9441   -0.9274 H   0  0  0  0  0  0  0  0  0  0  0  0
    4.6151    1.3504    3.0700 H   0  0  0  0  0  0  0  0  0  0  0  0
  1 16  1  0  0  0  0
  2 15  1  0  0  0  0
  2 27  1  0  0  0  0
  3 15  2  0  0  0  0
  4 10  1  0  0  0  0
  4 11  1  0  0  0  0
  4 21  1  0  0  0  0
  5  9  1  0  0  0  0
  5 25  1  0  0  0  0
  5 26  1  0  0  0  0
  6  7  1  0  0  0  0
  6  8  1  0  0  0  0
  6 11  2  0  0  0  0
  7  9  1  0  0  0  0
  7 17  1  0  0  0  0
  7 18  1  0  0  0  0
  8 10  2  0  0  0  0
  8 12  1  0  0  0  0
  9 15  1  0  0  0  0
  9 19  1  1  0  0  0
 10 13  1  0  0  0  0
 11 20  1  0  0  0  0
 12 14  2  0  0  0  0
 12 22  1  0  0  0  0
 13 16  2  0  0  0  0
 13 23  1  0  0  0  0
 14 16  1  0  0  0  0
 14 24  1  0  0  0  0
M  END
>  <PUBCHEM_COMPOUND_CID>
10062693

>  <PUBCHEM_CONFORMER_RMSD>
0.6

>  <PUBCHEM_CONFORMER_DIVERSEORDER>
1
17
14
15
6
5
11
16
19
12
9
13
18
7
3
2
4
8
10

>  <PUBCHEM_MMFF94_PARTIAL_CHARGES>
23
1 -0.18
10 -0.15
11 -0.3
12 -0.15
13 -0.15
14 -0.15
15 0.66
16 0.18
2 -0.65
20 0.15
21 0.27
22 0.15
23 0.15
24 0.15
25 0.36
26 0.36
27 0.5
3 -0.57
4 0.03
5 -0.99
6 -0.18
7 0.18
9 0.33

>  <PUBCHEM_EFFECTIVE_ROTOR_COUNT>
3

>  <PUBCHEM_PHARMACOPHORE_FEATURES>
9
1 2 acceptor
1 3 acceptor
1 4 cation
1 4 donor
1 5 cation
1 5 donor
3 2 3 15 anion
5 4 6 8 10 11 rings
6 8 10 12 13 14 16 rings

>  <PUBCHEM_HEAVY_ATOM_COUNT>
16

>  <PUBCHEM_ATOM_DEF_STEREO_COUNT>
1

>  <PUBCHEM_ATOM_UDEF_STEREO_COUNT>
0

>  <PUBCHEM_BOND_DEF_STEREO_COUNT>
0

>  <PUBCHEM_BOND_UDEF_STEREO_COUNT>
0

>  <PUBCHEM_ISOTOPIC_ATOM_COUNT>
0

>  <PUBCHEM_COMPONENT_COUNT>
1

>  <PUBCHEM_CACTVS_TAUTO_COUNT>
1

>  <PUBCHEM_CONFORMER_ID>
00998B6500000001

>  <PUBCHEM_MMFF94_ENERGY>
20.8722

>  <PUBCHEM_FEATURE_SELFOVERLAP>
45.82

>  <PUBCHEM_SHAPE_FINGERPRINT>
11640471 11 17897169241496700116
13380535 76 18410294670933973003
13583140 156 17168139023420613315
15775835 57 18334019405910167348
16945 1 18337673005782027651
17134986 127 18410578374618668357
18186145 218 18272381870667978737
20645476 183 18408598171668519395
21524375 3 18335423447925303731
22094290 62 18335419058584713298
231179 274 17968653805271512917
23175994 123 15647323105745291258
23402539 116 18059846273108328044
23419403 2 16323922072468417122
23557571 272 17560515230569604782
23559900 14 17988921185422784794
2748010 2 17333914852425149699
3060560 45 18339643317565256630
474 4 18261115132279299961
537710 114 18271523105348421913
58051976 378 18270678667464673221
7364860 26 18127694816149601031
7832392 63 18408881875901580972
9981440 41 17542499887853393528

>  <PUBCHEM_SHAPE_MULTIPOLES>
309.44
6.42
2.24
0.96
1.9
0.59
-0.15
-3.38
-0.1
-0.14
-0.26
-0.32
-0.17
-0.59

>  <PUBCHEM_SHAPE_SELFOVERLAP>
658.007

>  <PUBCHEM_SHAPE_VOLUME>
174.4

>  <PUBCHEM_COORDINATE_TYPE>
2
5
10

$$$$
10062693
 OpenBabel12092211553D

 27 28  0  0  1  0  0  0  0  0999 V2000
   -4.6519    1.4032   -0.1345 Cl  0  0  0  0  0  0  0  0  0  0  0  0
    1.5780    1.7438    0.3521 O   0  0  0  0  0  0  0  0  0  0  0  0
    2.5241    1.5876   -1.7025 O   0  0  0  0  0  0  0  0  0  0  0  0
   -1.0263   -2.3226   -0.5460 N   0  0  0  0  0  0  0  0  0  0  0  0
    4.2038    0.1167    0.5449 N   0  0  0  0  0  0  0  0  0  0  0  0
    0.6326   -1.1967    0.4063 C   0  0  0  0  0  0  0  0  0  0  0  0
    1.9626   -0.8486    0.9462 C   0  0  0  0  0  0  0  0  0  0  0  0
   -0.5212   -0.3639    0.3950 C   0  0  0  0  0  0  0  0  0  0  0  0
    2.9146   -0.1914   -0.0798 C   0  0  1  0  0  0  0  0  0  0  0  0
   -1.5477   -1.0942   -0.2078 C   0  0  0  0  0  0  0  0  0  0  0  0
    0.2906   -2.3941   -0.1788 C   0  0  0  0  0  0  0  0  0  0  0  0
   -0.7916    0.9450    0.8409 C   0  0  0  0  0  0  0  0  0  0  0  0
   -2.8363   -0.5787   -0.3876 C   0  0  0  0  0  0  0  0  0  0  0  0
   -2.0759    1.4737    0.6678 C   0  0  0  0  0  0  0  0  0  0  0  0
    2.3467    1.1254   -0.5824 C   0  0  0  0  0  0  0  0  0  0  0  0
   -3.0811    0.7218    0.0626 C   0  0  0  0  0  0  0  0  0  0  0  0
    2.4367   -1.7582    1.3404 H   0  0  0  0  0  0  0  0  0  0  0  0
    1.8368   -0.1822    1.8107 H   0  0  0  0  0  0  0  0  0  0  0  0
    3.0891   -0.8569   -0.9334 H   0  0  0  0  0  0  0  0  0  0  0  0
    0.8646   -3.2906   -0.3681 H   0  0  0  0  0  0  0  0  0  0  0  0
   -1.5419   -3.0639   -1.0000 H   0  0  0  0  0  0  0  0  0  0  0  0
   -0.0235    1.5447    1.3203 H   0  0  0  0  0  0  0  0  0  0  0  0
   -3.6113   -1.1739   -0.8604 H   0  0  0  0  0  0  0  0  0  0  0  0
   -2.2756    2.4845    1.0165 H   0  0  0  0  0  0  0  0  0  0  0  0
    4.8496    0.4687   -0.1611 H   0  0  0  0  0  0  0  0  0  0  0  0
    4.6198   -0.7405    0.9070 H   0  0  0  0  0  0  0  0  0  0  0  0
    1.2086    2.5895    0.0197 H   0  0  0  0  0  0  0  0  0  0  0  0
  1 16  1  0  0  0  0
  2 15  1  0  0  0  0
  2 27  1  0  0  0  0
  3 15  2  0  0  0  0
  4 10  1  0  0  0  0
  4 11  1  0  0  0  0
  4 21  1  0  0  0  0
  5  9  1  0  0  0  0
  5 25  1  0  0  0  0
  5 26  1  0  0  0  0
  6  7  1  0  0  0  0
  6  8  1  0  0  0  0
  6 11  2  0  0  0  0
  7  9  1  0  0  0  0
  7 17  1  0  0  0  0
  7 18  1  0  0  0  0
  8 10  2  0  0  0  0
  8 12  1  0  0  0  0
  9 15  1  0  0  0  0
  9 19  1  6  0  0  0
 10 13  1  0  0  0  0
 11 20  1  0  0  0  0
 12 14  2  0  0  0  0
 12 22  1  0  0  0  0
 13 16  2  0  0  0  0
 13 23  1  0  0  0  0
 14 16  1  0  0  0  0
 14 24  1  0  0  0  0
M  END
>  <PUBCHEM_COMPOUND_CID>
10062693

>  <PUBCHEM_CONFORMER_RMSD>
0.6

>  <PUBCHEM_CONFORMER_DIVERSEORDER>
1
17
14
15
6
5
11
16
19
12
9
13
18
7
3
2
4
8
10

>  <PUBCHEM_MMFF94_PARTIAL_CHARGES>
23
1 -0.18
10 -0.15
11 -0.3
12 -0.15
13 -0.15
14 -0.15
15 0.66
16 0.18
2 -0.65
20 0.15
21 0.27
22 0.15
23 0.15
24 0.15
25 0.36
26 0.36
27 0.5
3 -0.57
4 0.03
5 -0.99
6 -0.18
7 0.18
9 0.33

>  <PUBCHEM_EFFECTIVE_ROTOR_COUNT>
3

>  <PUBCHEM_PHARMACOPHORE_FEATURES>
9
1 2 acceptor
1 3 acceptor
1 4 cation
1 4 donor
1 5 cation
1 5 donor
3 2 3 15 anion
5 4 6 8 10 11 rings
6 8 10 12 13 14 16 rings

>  <PUBCHEM_HEAVY_ATOM_COUNT>
16

>  <PUBCHEM_ATOM_DEF_STEREO_COUNT>
1

>  <PUBCHEM_ATOM_UDEF_STEREO_COUNT>
0

>  <PUBCHEM_BOND_DEF_STEREO_COUNT>
0

>  <PUBCHEM_BOND_UDEF_STEREO_COUNT>
0

>  <PUBCHEM_ISOTOPIC_ATOM_COUNT>
0

>  <PUBCHEM_COMPONENT_COUNT>
1

>  <PUBCHEM_CACTVS_TAUTO_COUNT>
1

>  <PUBCHEM_CONFORMER_ID>
00998B6500000001

>  <PUBCHEM_MMFF94_ENERGY>
20.8722

>  <PUBCHEM_FEATURE_SELFOVERLAP>
45.82

>  <PUBCHEM_SHAPE_FINGERPRINT>
11640471 11 17897169241496700116
13380535 76 18410294670933973003
13583140 156 17168139023420613315
15775835 57 18334019405910167348
16945 1 18337673005782027651
17134986 127 18410578374618668357
18186145 218 18272381870667978737
20645476 183 18408598171668519395
21524375 3 18335423447925303731
22094290 62 18335419058584713298
231179 274 17968653805271512917
23175994 123 15647323105745291258
23402539 116 18059846273108328044
23419403 2 16323922072468417122
23557571 272 17560515230569604782
23559900 14 17988921185422784794
2748010 2 17333914852425149699
3060560 45 18339643317565256630
474 4 18261115132279299961
537710 114 18271523105348421913
58051976 378 18270678667464673221
7364860 26 18127694816149601031
7832392 63 18408881875901580972
9981440 41 17542499887853393528

>  <PUBCHEM_SHAPE_MULTIPOLES>
309.44
6.42
2.24
0.96
1.9
0.59
-0.15
-3.38
-0.1
-0.14
-0.26
-0.32
-0.17
-0.59

>  <PUBCHEM_SHAPE_SELFOVERLAP>
658.007

>  <PUBCHEM_SHAPE_VOLUME>
174.4

>  <PUBCHEM_COORDINATE_TYPE>
2
5
10

$$$$
10062693
 OpenBabel12092211553D

 27 28  0  0  1  0  0  0  0  0999 V2000
   -4.6519    1.4032   -0.1345 Cl  0  0  0  0  0  0  0  0  0  0  0  0
    3.7477   -4.1340    0.8399 O   0  0  0  0  0  0  0  0  0  0  0  0
    2.7190   -2.9325   -0.7847 O   0  0  0  0  0  0  0  0  0  0  0  0
   -1.0263   -2.3226   -0.5460 N   0  0  0  0  0  0  0  0  0  0  0  0
    4.0645   -1.6116    2.0023 N   0  0  0  0  0  0  0  0  0  0  0  0
    0.6326   -1.1967    0.4063 C   0  0  0  0  0  0  0  0  0  0  0  0
    1.9626   -0.8486    0.9462 C   0  0  0  0  0  0  0  0  0  0  0  0
   -0.5212   -0.3639    0.3950 C   0  0  0  0  0  0  0  0  0  0  0  0
    2.7646   -2.0535    1.4903 C   0  0  1  0  0  0  0  0  0  0  0  0
   -1.5477   -1.0942   -0.2078 C   0  0  0  0  0  0  0  0  0  0  0  0
    0.2906   -2.3941   -0.1788 C   0  0  0  0  0  0  0  0  0  0  0  0
   -0.7916    0.9450    0.8409 C   0  0  0  0  0  0  0  0  0  0  0  0
   -2.8363   -0.5787   -0.3876 C   0  0  0  0  0  0  0  0  0  0  0  0
   -2.0759    1.4737    0.6678 C   0  0  0  0  0  0  0  0  0  0  0  0
    3.0483   -3.0601    0.3879 C   0  0  0  0  0  0  0  0  0  0  0  0
   -3.0811    0.7218    0.0626 C   0  0  0  0  0  0  0  0  0  0  0  0
    1.8388   -0.1104    1.7507 H   0  0  0  0  0  0  0  0  0  0  0  0
    2.5460   -0.3407    0.1658 H   0  0  0  0  0  0  0  0  0  0  0  0
    2.2198   -2.5518    2.3008 H   0  0  0  0  0  0  0  0  0  0  0  0
    0.8646   -3.2906   -0.3681 H   0  0  0  0  0  0  0  0  0  0  0  0
   -1.5419   -3.0639   -1.0000 H   0  0  0  0  0  0  0  0  0  0  0  0
   -0.0235    1.5447    1.3203 H   0  0  0  0  0  0  0  0  0  0  0  0
   -3.6113   -1.1739   -0.8604 H   0  0  0  0  0  0  0  0  0  0  0  0
   -2.2756    2.4845    1.0165 H   0  0  0  0  0  0  0  0  0  0  0  0
    4.5461   -2.3990    2.4355 H   0  0  0  0  0  0  0  0  0  0  0  0
    3.9231   -0.9246    2.7419 H   0  0  0  0  0  0  0  0  0  0  0  0
    3.9339   -4.7767    0.1227 H   0  0  0  0  0  0  0  0  0  0  0  0
  1 16  1  0  0  0  0
  2 15  1  0  0  0  0
  2 27  1  0  0  0  0
  3 15  2  0  0  0  0
  4 10  1  0  0  0  0
  4 11  1  0  0  0  0
  4 21  1  0  0  0  0
  5  9  1  0  0  0  0
  5 25  1  0  0  0  0
  5 26  1  0  0  0  0
  6  7  1  0  0  0  0
  6  8  1  0  0  0  0
  6 11  2  0  0  0  0
  7  9  1  0  0  0  0
  7 17  1  0  0  0  0
  7 18  1  0  0  0  0
  8 10  2  0  0  0  0
  8 12  1  0  0  0  0
  9 15  1  0  0  0  0
  9 19  1  1  0  0  0
 10 13  1  0  0  0  0
 11 20  1  0  0  0  0
 12 14  2  0  0  0  0
 12 22  1  0  0  0  0
 13 16  2  0  0  0  0
 13 23  1  0  0  0  0
 14 16  1  0  0  0  0
 14 24  1  0  0  0  0
M  END
>  <PUBCHEM_COMPOUND_CID>
10062693

>  <PUBCHEM_CONFORMER_RMSD>
0.6

>  <PUBCHEM_CONFORMER_DIVERSEORDER>
1
17
14
15
6
5
11
16
19
12
9
13
18
7
3
2
4
8
10

>  <PUBCHEM_MMFF94_PARTIAL_CHARGES>
23
1 -0.18
10 -0.15
11 -0.3
12 -0.15
13 -0.15
14 -0.15
15 0.66
16 0.18
2 -0.65
20 0.15
21 0.27
22 0.15
23 0.15
24 0.15
25 0.36
26 0.36
27 0.5
3 -0.57
4 0.03
5 -0.99
6 -0.18
7 0.18
9 0.33

>  <PUBCHEM_EFFECTIVE_ROTOR_COUNT>
3

>  <PUBCHEM_PHARMACOPHORE_FEATURES>
9
1 2 acceptor
1 3 acceptor
1 4 cation
1 4 donor
1 5 cation
1 5 donor
3 2 3 15 anion
5 4 6 8 10 11 rings
6 8 10 12 13 14 16 rings

>  <PUBCHEM_HEAVY_ATOM_COUNT>
16

>  <PUBCHEM_ATOM_DEF_STEREO_COUNT>
1

>  <PUBCHEM_ATOM_UDEF_STEREO_COUNT>
0

>  <PUBCHEM_BOND_DEF_STEREO_COUNT>
0

>  <PUBCHEM_BOND_UDEF_STEREO_COUNT>
0

>  <PUBCHEM_ISOTOPIC_ATOM_COUNT>
0

>  <PUBCHEM_COMPONENT_COUNT>
1

>  <PUBCHEM_CACTVS_TAUTO_COUNT>
1

>  <PUBCHEM_CONFORMER_ID>
00998B6500000001

>  <PUBCHEM_MMFF94_ENERGY>
20.8722

>  <PUBCHEM_FEATURE_SELFOVERLAP>
45.82

>  <PUBCHEM_SHAPE_FINGERPRINT>
11640471 11 17897169241496700116
13380535 76 18410294670933973003
13583140 156 17168139023420613315
15775835 57 18334019405910167348
16945 1 18337673005782027651
17134986 127 18410578374618668357
18186145 218 18272381870667978737
20645476 183 18408598171668519395
21524375 3 18335423447925303731
22094290 62 18335419058584713298
231179 274 17968653805271512917
23175994 123 15647323105745291258
23402539 116 18059846273108328044
23419403 2 16323922072468417122
23557571 272 17560515230569604782
23559900 14 17988921185422784794
2748010 2 17333914852425149699
3060560 45 18339643317565256630
474 4 18261115132279299961
537710 114 18271523105348421913
58051976 378 18270678667464673221
7364860 26 18127694816149601031
7832392 63 18408881875901580972
9981440 41 17542499887853393528

>  <PUBCHEM_SHAPE_MULTIPOLES>
309.44
6.42
2.24
0.96
1.9
0.59
-0.15
-3.38
-0.1
-0.14
-0.26
-0.32
-0.17
-0.59

>  <PUBCHEM_SHAPE_SELFOVERLAP>
658.007

>  <PUBCHEM_SHAPE_VOLUME>
174.4

>  <PUBCHEM_COORDINATE_TYPE>
2
5
10

$$$$
10062693
 OpenBabel12092211553D

 27 28  0  0  1  0  0  0  0  0999 V2000
   -4.6519    1.4032   -0.1345 Cl  0  0  0  0  0  0  0  0  0  0  0  0
    2.8114   -3.2583    0.1238 O   0  0  0  0  0  0  0  0  0  0  0  0
    3.6278   -2.5040   -1.8524 O   0  0  0  0  0  0  0  0  0  0  0  0
   -1.0263   -2.3226   -0.5460 N   0  0  0  0  0  0  0  0  0  0  0  0
    2.8398    0.0464   -1.1858 N   0  0  0  0  0  0  0  0  0  0  0  0
    0.6326   -1.1967    0.4063 C   0  0  0  0  0  0  0  0  0  0  0  0
    1.9626   -0.8486    0.9462 C   0  0  0  0  0  0  0  0  0  0  0  0
   -0.5212   -0.3639    0.3950 C   0  0  0  0  0  0  0  0  0  0  0  0
    3.1050   -0.8953   -0.0949 C   0  0  1  0  0  0  0  0  0  0  0  0
   -1.5477   -1.0942   -0.2078 C   0  0  0  0  0  0  0  0  0  0  0  0
    0.2906   -2.3941   -0.1788 C   0  0  0  0  0  0  0  0  0  0  0  0
   -0.7916    0.9450    0.8409 C   0  0  0  0  0  0  0  0  0  0  0  0
   -2.8363   -0.5787   -0.3876 C   0  0  0  0  0  0  0  0  0  0  0  0
   -2.0759    1.4737    0.6678 C   0  0  0  0  0  0  0  0  0  0  0  0
    3.2109   -2.2744   -0.7241 C   0  0  0  0  0  0  0  0  0  0  0  0
   -3.0811    0.7218    0.0626 C   0  0  0  0  0  0  0  0  0  0  0  0
    2.2035   -1.5343    1.7704 H   0  0  0  0  0  0  0  0  0  0  0  0
    1.9170    0.1521    1.3976 H   0  0  0  0  0  0  0  0  0  0  0  0
    4.0651   -0.6358    0.3664 H   0  0  0  0  0  0  0  0  0  0  0  0
    0.8646   -3.2906   -0.3681 H   0  0  0  0  0  0  0  0  0  0  0  0
   -1.5419   -3.0639   -1.0000 H   0  0  0  0  0  0  0  0  0  0  0  0
   -0.0235    1.5447    1.3203 H   0  0  0  0  0  0  0  0  0  0  0  0
   -3.6113   -1.1739   -0.8604 H   0  0  0  0  0  0  0  0  0  0  0  0
   -2.2756    2.4845    1.0165 H   0  0  0  0  0  0  0  0  0  0  0  0
    3.6388    0.0692   -1.8187 H   0  0  0  0  0  0  0  0  0  0  0  0
    2.7512    0.9888   -0.8075 H   0  0  0  0  0  0  0  0  0  0  0  0
    2.8886   -4.1465   -0.2852 H   0  0  0  0  0  0  0  0  0  0  0  0
  1 16  1  0  0  0  0
  2 15  1  0  0  0  0
  2 27  1  0  0  0  0
  3 15  2  0  0  0  0
  4 10  1  0  0  0  0
  4 11  1  0  0  0  0
  4 21  1  0  0  0  0
  5  9  1  0  0  0  0
  5 25  1  0  0  0  0
  5 26  1  0  0  0  0
  6  7  1  0  0  0  0
  6  8  1  0  0  0  0
  6 11  2  0  0  0  0
  7  9  1  0  0  0  0
  7 17  1  0  0  0  0
  7 18  1  0  0  0  0
  8 10  2  0  0  0  0
  8 12  1  0  0  0  0
  9 15  1  0  0  0  0
  9 19  1  1  0  0  0
 10 13  1  0  0  0  0
 11 20  1  0  0  0  0
 12 14  2  0  0  0  0
 12 22  1  0  0  0  0
 13 16  2  0  0  0  0
 13 23  1  0  0  0  0
 14 16  1  0  0  0  0
 14 24  1  0  0  0  0
M  END
>  <PUBCHEM_COMPOUND_CID>
10062693

>  <PUBCHEM_CONFORMER_RMSD>
0.6

>  <PUBCHEM_CONFORMER_DIVERSEORDER>
1
17
14
15
6
5
11
16
19
12
9
13
18
7
3
2
4
8
10

>  <PUBCHEM_MMFF94_PARTIAL_CHARGES>
23
1 -0.18
10 -0.15
11 -0.3
12 -0.15
13 -0.15
14 -0.15
15 0.66
16 0.18
2 -0.65
20 0.15
21 0.27
22 0.15
23 0.15
24 0.15
25 0.36
26 0.36
27 0.5
3 -0.57
4 0.03
5 -0.99
6 -0.18
7 0.18
9 0.33

>  <PUBCHEM_EFFECTIVE_ROTOR_COUNT>
3

>  <PUBCHEM_PHARMACOPHORE_FEATURES>
9
1 2 acceptor
1 3 acceptor
1 4 cation
1 4 donor
1 5 cation
1 5 donor
3 2 3 15 anion
5 4 6 8 10 11 rings
6 8 10 12 13 14 16 rings

>  <PUBCHEM_HEAVY_ATOM_COUNT>
16

>  <PUBCHEM_ATOM_DEF_STEREO_COUNT>
1

>  <PUBCHEM_ATOM_UDEF_STEREO_COUNT>
0

>  <PUBCHEM_BOND_DEF_STEREO_COUNT>
0

>  <PUBCHEM_BOND_UDEF_STEREO_COUNT>
0

>  <PUBCHEM_ISOTOPIC_ATOM_COUNT>
0

>  <PUBCHEM_COMPONENT_COUNT>
1

>  <PUBCHEM_CACTVS_TAUTO_COUNT>
1

>  <PUBCHEM_CONFORMER_ID>
00998B6500000001

>  <PUBCHEM_MMFF94_ENERGY>
20.8722

>  <PUBCHEM_FEATURE_SELFOVERLAP>
45.82

>  <PUBCHEM_SHAPE_FINGERPRINT>
11640471 11 17897169241496700116
13380535 76 18410294670933973003
13583140 156 17168139023420613315
15775835 57 18334019405910167348
16945 1 18337673005782027651
17134986 127 18410578374618668357
18186145 218 18272381870667978737
20645476 183 18408598171668519395
21524375 3 18335423447925303731
22094290 62 18335419058584713298
231179 274 17968653805271512917
23175994 123 15647323105745291258
23402539 116 18059846273108328044
23419403 2 16323922072468417122
23557571 272 17560515230569604782
23559900 14 17988921185422784794
2748010 2 17333914852425149699
3060560 45 18339643317565256630
474 4 18261115132279299961
537710 114 18271523105348421913
58051976 378 18270678667464673221
7364860 26 18127694816149601031
7832392 63 18408881875901580972
9981440 41 17542499887853393528

>  <PUBCHEM_SHAPE_MULTIPOLES>
309.44
6.42
2.24
0.96
1.9
0.59
-0.15
-3.38
-0.1
-0.14
-0.26
-0.32
-0.17
-0.59

>  <PUBCHEM_SHAPE_SELFOVERLAP>
658.007

>  <PUBCHEM_SHAPE_VOLUME>
174.4

>  <PUBCHEM_COORDINATE_TYPE>
2
5
10

$$$$
10062693
 OpenBabel12092211553D

 27 28  0  0  1  0  0  0  0  0999 V2000
   -4.6519    1.4032   -0.1345 Cl  0  0  0  0  0  0  0  0  0  0  0  0
   -0.1531   -0.1461    3.2638 O   0  0  0  0  0  0  0  0  0  0  0  0
    1.6813   -1.0686    4.2255 O   0  0  0  0  0  0  0  0  0  0  0  0
   -1.0263   -2.3226   -0.5460 N   0  0  0  0  0  0  0  0  0  0  0  0
    3.2896    0.4331    2.5931 N   0  0  0  0  0  0  0  0  0  0  0  0
    0.6326   -1.1967    0.4063 C   0  0  0  0  0  0  0  0  0  0  0  0
    1.9626   -0.8486    0.9462 C   0  0  0  0  0  0  0  0  0  0  0  0
   -0.5212   -0.3639    0.3950 C   0  0  0  0  0  0  0  0  0  0  0  0
    1.9297    0.1495    2.1268 C   0  0  1  0  0  0  0  0  0  0  0  0
   -1.5477   -1.0942   -0.2078 C   0  0  0  0  0  0  0  0  0  0  0  0
    0.2906   -2.3941   -0.1788 C   0  0  0  0  0  0  0  0  0  0  0  0
   -0.7916    0.9450    0.8409 C   0  0  0  0  0  0  0  0  0  0  0  0
   -2.8363   -0.5787   -0.3876 C   0  0  0  0  0  0  0  0  0  0  0  0
   -2.0759    1.4737    0.6678 C   0  0  0  0  0  0  0  0  0  0  0  0
    1.1745   -0.4327    3.3099 C   0  0  0  0  0  0  0  0  0  0  0  0
   -3.0811    0.7218    0.0626 C   0  0  0  0  0  0  0  0  0  0  0  0
    2.5756   -0.4250    0.1386 H   0  0  0  0  0  0  0  0  0  0  0  0
    2.4769   -1.7686    1.2566 H   0  0  0  0  0  0  0  0  0  0  0  0
    1.4578    1.0929    1.8280 H   0  0  0  0  0  0  0  0  0  0  0  0
    0.8646   -3.2906   -0.3681 H   0  0  0  0  0  0  0  0  0  0  0  0
   -1.5419   -3.0639   -1.0000 H   0  0  0  0  0  0  0  0  0  0  0  0
   -0.0235    1.5447    1.3203 H   0  0  0  0  0  0  0  0  0  0  0  0
   -3.6113   -1.1739   -0.8604 H   0  0  0  0  0  0  0  0  0  0  0  0
   -2.2756    2.4845    1.0165 H   0  0  0  0  0  0  0  0  0  0  0  0
    3.2601    1.1559    3.3116 H   0  0  0  0  0  0  0  0  0  0  0  0
    3.8386    0.8189    1.8258 H   0  0  0  0  0  0  0  0  0  0  0  0
   -0.6340   -0.5184    4.0334 H   0  0  0  0  0  0  0  0  0  0  0  0
  1 16  1  0  0  0  0
  2 15  1  0  0  0  0
  2 27  1  0  0  0  0
  3 15  2  0  0  0  0
  4 10  1  0  0  0  0
  4 11  1  0  0  0  0
  4 21  1  0  0  0  0
  5  9  1  0  0  0  0
  5 25  1  0  0  0  0
  5 26  1  0  0  0  0
  6  7  1  0  0  0  0
  6  8  1  0  0  0  0
  6 11  2  0  0  0  0
  7  9  1  0  0  0  0
  7 17  1  0  0  0  0
  7 18  1  0  0  0  0
  8 10  2  0  0  0  0
  8 12  1  0  0  0  0
  9 15  1  0  0  0  0
  9 19  1  6  0  0  0
 10 13  1  0  0  0  0
 11 20  1  0  0  0  0
 12 14  2  0  0  0  0
 12 22  1  0  0  0  0
 13 16  2  0  0  0  0
 13 23  1  0  0  0  0
 14 16  1  0  0  0  0
 14 24  1  0  0  0  0
M  END
>  <PUBCHEM_COMPOUND_CID>
10062693

>  <PUBCHEM_CONFORMER_RMSD>
0.6

>  <PUBCHEM_CONFORMER_DIVERSEORDER>
1
17
14
15
6
5
11
16
19
12
9
13
18
7
3
2
4
8
10

>  <PUBCHEM_MMFF94_PARTIAL_CHARGES>
23
1 -0.18
10 -0.15
11 -0.3
12 -0.15
13 -0.15
14 -0.15
15 0.66
16 0.18
2 -0.65
20 0.15
21 0.27
22 0.15
23 0.15
24 0.15
25 0.36
26 0.36
27 0.5
3 -0.57
4 0.03
5 -0.99
6 -0.18
7 0.18
9 0.33

>  <PUBCHEM_EFFECTIVE_ROTOR_COUNT>
3

>  <PUBCHEM_PHARMACOPHORE_FEATURES>
9
1 2 acceptor
1 3 acceptor
1 4 cation
1 4 donor
1 5 cation
1 5 donor
3 2 3 15 anion
5 4 6 8 10 11 rings
6 8 10 12 13 14 16 rings

>  <PUBCHEM_HEAVY_ATOM_COUNT>
16

>  <PUBCHEM_ATOM_DEF_STEREO_COUNT>
1

>  <PUBCHEM_ATOM_UDEF_STEREO_COUNT>
0

>  <PUBCHEM_BOND_DEF_STEREO_COUNT>
0

>  <PUBCHEM_BOND_UDEF_STEREO_COUNT>
0

>  <PUBCHEM_ISOTOPIC_ATOM_COUNT>
0

>  <PUBCHEM_COMPONENT_COUNT>
1

>  <PUBCHEM_CACTVS_TAUTO_COUNT>
1

>  <PUBCHEM_CONFORMER_ID>
00998B6500000001

>  <PUBCHEM_MMFF94_ENERGY>
20.8722

>  <PUBCHEM_FEATURE_SELFOVERLAP>
45.82

>  <PUBCHEM_SHAPE_FINGERPRINT>
11640471 11 17897169241496700116
13380535 76 18410294670933973003
13583140 156 17168139023420613315
15775835 57 18334019405910167348
16945 1 18337673005782027651
17134986 127 18410578374618668357
18186145 218 18272381870667978737
20645476 183 18408598171668519395
21524375 3 18335423447925303731
22094290 62 18335419058584713298
231179 274 17968653805271512917
23175994 123 15647323105745291258
23402539 116 18059846273108328044
23419403 2 16323922072468417122
23557571 272 17560515230569604782
23559900 14 17988921185422784794
2748010 2 17333914852425149699
3060560 45 18339643317565256630
474 4 18261115132279299961
537710 114 18271523105348421913
58051976 378 18270678667464673221
7364860 26 18127694816149601031
7832392 63 18408881875901580972
9981440 41 17542499887853393528

>  <PUBCHEM_SHAPE_MULTIPOLES>
309.44
6.42
2.24
0.96
1.9
0.59
-0.15
-3.38
-0.1
-0.14
-0.26
-0.32
-0.17
-0.59

>  <PUBCHEM_SHAPE_SELFOVERLAP>
658.007

>  <PUBCHEM_SHAPE_VOLUME>
174.4

>  <PUBCHEM_COORDINATE_TYPE>
2
5
10

$$$$
10062693
 OpenBabel12092211553D

 27 28  0  0  1  0  0  0  0  0999 V2000
   -4.6519    1.4032   -0.1345 Cl  0  0  0  0  0  0  0  0  0  0  0  0
    2.4401   -3.2795   -1.1040 O   0  0  0  0  0  0  0  0  0  0  0  0
    4.1343   -1.7930   -1.3501 O   0  0  0  0  0  0  0  0  0  0  0  0
   -1.0263   -2.3226   -0.5460 N   0  0  0  0  0  0  0  0  0  0  0  0
    4.3001   -1.5345    1.3724 N   0  0  0  0  0  0  0  0  0  0  0  0
    0.6326   -1.1967    0.4063 C   0  0  0  0  0  0  0  0  0  0  0  0
    1.9626   -0.8486    0.9462 C   0  0  0  0  0  0  0  0  0  0  0  0
   -0.5212   -0.3639    0.3950 C   0  0  0  0  0  0  0  0  0  0  0  0
    3.0184   -1.9703    0.8117 C   0  0  1  0  0  0  0  0  0  0  0  0
   -1.5477   -1.0942   -0.2078 C   0  0  0  0  0  0  0  0  0  0  0  0
    0.2906   -2.3941   -0.1788 C   0  0  0  0  0  0  0  0  0  0  0  0
   -0.7916    0.9450    0.8409 C   0  0  0  0  0  0  0  0  0  0  0  0
   -2.8363   -0.5787   -0.3876 C   0  0  0  0  0  0  0  0  0  0  0  0
   -2.0759    1.4737    0.6678 C   0  0  0  0  0  0  0  0  0  0  0  0
    3.2717   -2.3060   -0.6486 C   0  0  0  0  0  0  0  0  0  0  0  0
   -3.0811    0.7218    0.0626 C   0  0  0  0  0  0  0  0  0  0  0  0
    1.8583   -0.5829    2.0073 H   0  0  0  0  0  0  0  0  0  0  0  0
    2.3264    0.0606    0.4480 H   0  0  0  0  0  0  0  0  0  0  0  0
    2.6955   -2.8762    1.3381 H   0  0  0  0  0  0  0  0  0  0  0  0
    0.8646   -3.2906   -0.3681 H   0  0  0  0  0  0  0  0  0  0  0  0
   -1.5419   -3.0639   -1.0000 H   0  0  0  0  0  0  0  0  0  0  0  0
   -0.0235    1.5447    1.3203 H   0  0  0  0  0  0  0  0  0  0  0  0
   -3.6113   -1.1739   -0.8604 H   0  0  0  0  0  0  0  0  0  0  0  0
   -2.2756    2.4845    1.0165 H   0  0  0  0  0  0  0  0  0  0  0  0
    4.9611   -2.3106    1.3562 H   0  0  0  0  0  0  0  0  0  0  0  0
    4.1759   -1.2887    2.3538 H   0  0  0  0  0  0  0  0  0  0  0  0
    2.6129   -3.4968   -2.0447 H   0  0  0  0  0  0  0  0  0  0  0  0
  1 16  1  0  0  0  0
  2 15  1  0  0  0  0
  2 27  1  0  0  0  0
  3 15  2  0  0  0  0
  4 10  1  0  0  0  0
  4 11  1  0  0  0  0
  4 21  1  0  0  0  0
  5  9  1  0  0  0  0
  5 25  1  0  0  0  0
  5 26  1  0  0  0  0
  6  7  1  0  0  0  0
  6  8  1  0  0  0  0
  6 11  2  0  0  0  0
  7  9  1  0  0  0  0
  7 17  1  0  0  0  0
  7 18  1  0  0  0  0
  8 10  2  0  0  0  0
  8 12  1  0  0  0  0
  9 15  1  0  0  0  0
  9 19  1  1  0  0  0
 10 13  1  0  0  0  0
 11 20  1  0  0  0  0
 12 14  2  0  0  0  0
 12 22  1  0  0  0  0
 13 16  2  0  0  0  0
 13 23  1  0  0  0  0
 14 16  1  0  0  0  0
 14 24  1  0  0  0  0
M  END
>  <PUBCHEM_COMPOUND_CID>
10062693

>  <PUBCHEM_CONFORMER_RMSD>
0.6

>  <PUBCHEM_CONFORMER_DIVERSEORDER>
1
17
14
15
6
5
11
16
19
12
9
13
18
7
3
2
4
8
10

>  <PUBCHEM_MMFF94_PARTIAL_CHARGES>
23
1 -0.18
10 -0.15
11 -0.3
12 -0.15
13 -0.15
14 -0.15
15 0.66
16 0.18
2 -0.65
20 0.15
21 0.27
22 0.15
23 0.15
24 0.15
25 0.36
26 0.36
27 0.5
3 -0.57
4 0.03
5 -0.99
6 -0.18
7 0.18
9 0.33

>  <PUBCHEM_EFFECTIVE_ROTOR_COUNT>
3

>  <PUBCHEM_PHARMACOPHORE_FEATURES>
9
1 2 acceptor
1 3 acceptor
1 4 cation
1 4 donor
1 5 cation
1 5 donor
3 2 3 15 anion
5 4 6 8 10 11 rings
6 8 10 12 13 14 16 rings

>  <PUBCHEM_HEAVY_ATOM_COUNT>
16

>  <PUBCHEM_ATOM_DEF_STEREO_COUNT>
1

>  <PUBCHEM_ATOM_UDEF_STEREO_COUNT>
0

>  <PUBCHEM_BOND_DEF_STEREO_COUNT>
0

>  <PUBCHEM_BOND_UDEF_STEREO_COUNT>
0

>  <PUBCHEM_ISOTOPIC_ATOM_COUNT>
0

>  <PUBCHEM_COMPONENT_COUNT>
1

>  <PUBCHEM_CACTVS_TAUTO_COUNT>
1

>  <PUBCHEM_CONFORMER_ID>
00998B6500000001

>  <PUBCHEM_MMFF94_ENERGY>
20.8722

>  <PUBCHEM_FEATURE_SELFOVERLAP>
45.82

>  <PUBCHEM_SHAPE_FINGERPRINT>
11640471 11 17897169241496700116
13380535 76 18410294670933973003
13583140 156 17168139023420613315
15775835 57 18334019405910167348
16945 1 18337673005782027651
17134986 127 18410578374618668357
18186145 218 18272381870667978737
20645476 183 18408598171668519395
21524375 3 18335423447925303731
22094290 62 18335419058584713298
231179 274 17968653805271512917
23175994 123 15647323105745291258
23402539 116 18059846273108328044
23419403 2 16323922072468417122
23557571 272 17560515230569604782
23559900 14 17988921185422784794
2748010 2 17333914852425149699
3060560 45 18339643317565256630
474 4 18261115132279299961
537710 114 18271523105348421913
58051976 378 18270678667464673221
7364860 26 18127694816149601031
7832392 63 18408881875901580972
9981440 41 17542499887853393528

>  <PUBCHEM_SHAPE_MULTIPOLES>
309.44
6.42
2.24
0.96
1.9
0.59
-0.15
-3.38
-0.1
-0.14
-0.26
-0.32
-0.17
-0.59

>  <PUBCHEM_SHAPE_SELFOVERLAP>
658.007

>  <PUBCHEM_SHAPE_VOLUME>
174.4

>  <PUBCHEM_COORDINATE_TYPE>
2
5
10

$$$$
10062693
 OpenBabel12092211553D

 27 28  0  0  1  0  0  0  0  0999 V2000
   -4.6519    1.4032   -0.1345 Cl  0  0  0  0  0  0  0  0  0  0  0  0
    4.0763    0.2065   -1.6187 O   0  0  0  0  0  0  0  0  0  0  0  0
    1.8542   -0.0207   -2.0081 O   0  0  0  0  0  0  0  0  0  0  0  0
   -1.0263   -2.3226   -0.5460 N   0  0  0  0  0  0  0  0  0  0  0  0
    1.7824    1.5653    0.4396 N   0  0  0  0  0  0  0  0  0  0  0  0
    0.6326   -1.1967    0.4063 C   0  0  0  0  0  0  0  0  0  0  0  0
    1.9626   -0.8486    0.9462 C   0  0  0  0  0  0  0  0  0  0  0  0
   -0.5212   -0.3639    0.3950 C   0  0  0  0  0  0  0  0  0  0  0  0
    2.6229    0.3766    0.2726 C   0  0  1  0  0  0  0  0  0  0  0  0
   -1.5477   -1.0942   -0.2078 C   0  0  0  0  0  0  0  0  0  0  0  0
    0.2906   -2.3941   -0.1788 C   0  0  0  0  0  0  0  0  0  0  0  0
   -0.7916    0.9450    0.8409 C   0  0  0  0  0  0  0  0  0  0  0  0
   -2.8363   -0.5787   -0.3876 C   0  0  0  0  0  0  0  0  0  0  0  0
   -2.0759    1.4737    0.6678 C   0  0  0  0  0  0  0  0  0  0  0  0
    2.7771    0.1572   -1.2231 C   0  0  0  0  0  0  0  0  0  0  0  0
   -3.0811    0.7218    0.0626 C   0  0  0  0  0  0  0  0  0  0  0  0
    2.6289   -1.7159    0.8396 H   0  0  0  0  0  0  0  0  0  0  0  0
    1.8771   -0.6723    2.0273 H   0  0  0  0  0  0  0  0  0  0  0  0
    3.6077    0.5796    0.7096 H   0  0  0  0  0  0  0  0  0  0  0  0
    0.8646   -3.2906   -0.3681 H   0  0  0  0  0  0  0  0  0  0  0  0
   -1.5419   -3.0639   -1.0000 H   0  0  0  0  0  0  0  0  0  0  0  0
   -0.0235    1.5447    1.3203 H   0  0  0  0  0  0  0  0  0  0  0  0
   -3.6113   -1.1739   -0.8604 H   0  0  0  0  0  0  0  0  0  0  0  0
   -2.2756    2.4845    1.0165 H   0  0  0  0  0  0  0  0  0  0  0  0
    2.2677    2.3813    0.0680 H   0  0  0  0  0  0  0  0  0  0  0  0
    1.6434    1.7465    1.4330 H   0  0  0  0  0  0  0  0  0  0  0  0
    4.1690    0.0712   -2.5858 H   0  0  0  0  0  0  0  0  0  0  0  0
  1 16  1  0  0  0  0
  2 15  1  0  0  0  0
  2 27  1  0  0  0  0
  3 15  2  0  0  0  0
  4 10  1  0  0  0  0
  4 11  1  0  0  0  0
  4 21  1  0  0  0  0
  5  9  1  0  0  0  0
  5 25  1  0  0  0  0
  5 26  1  0  0  0  0
  6  7  1  0  0  0  0
  6  8  1  0  0  0  0
  6 11  2  0  0  0  0
  7  9  1  0  0  0  0
  7 17  1  0  0  0  0
  7 18  1  0  0  0  0
  8 10  2  0  0  0  0
  8 12  1  0  0  0  0
  9 15  1  0  0  0  0
  9 19  1  1  0  0  0
 10 13  1  0  0  0  0
 11 20  1  0  0  0  0
 12 14  2  0  0  0  0
 12 22  1  0  0  0  0
 13 16  2  0  0  0  0
 13 23  1  0  0  0  0
 14 16  1  0  0  0  0
 14 24  1  0  0  0  0
M  END
>  <PUBCHEM_COMPOUND_CID>
10062693

>  <PUBCHEM_CONFORMER_RMSD>
0.6

>  <PUBCHEM_CONFORMER_DIVERSEORDER>
1
17
14
15
6
5
11
16
19
12
9
13
18
7
3
2
4
8
10

>  <PUBCHEM_MMFF94_PARTIAL_CHARGES>
23
1 -0.18
10 -0.15
11 -0.3
12 -0.15
13 -0.15
14 -0.15
15 0.66
16 0.18
2 -0.65
20 0.15
21 0.27
22 0.15
23 0.15
24 0.15
25 0.36
26 0.36
27 0.5
3 -0.57
4 0.03
5 -0.99
6 -0.18
7 0.18
9 0.33

>  <PUBCHEM_EFFECTIVE_ROTOR_COUNT>
3

>  <PUBCHEM_PHARMACOPHORE_FEATURES>
9
1 2 acceptor
1 3 acceptor
1 4 cation
1 4 donor
1 5 cation
1 5 donor
3 2 3 15 anion
5 4 6 8 10 11 rings
6 8 10 12 13 14 16 rings

>  <PUBCHEM_HEAVY_ATOM_COUNT>
16

>  <PUBCHEM_ATOM_DEF_STEREO_COUNT>
1

>  <PUBCHEM_ATOM_UDEF_STEREO_COUNT>
0

>  <PUBCHEM_BOND_DEF_STEREO_COUNT>
0

>  <PUBCHEM_BOND_UDEF_STEREO_COUNT>
0

>  <PUBCHEM_ISOTOPIC_ATOM_COUNT>
0

>  <PUBCHEM_COMPONENT_COUNT>
1

>  <PUBCHEM_CACTVS_TAUTO_COUNT>
1

>  <PUBCHEM_CONFORMER_ID>
00998B6500000001

>  <PUBCHEM_MMFF94_ENERGY>
20.8722

>  <PUBCHEM_FEATURE_SELFOVERLAP>
45.82

>  <PUBCHEM_SHAPE_FINGERPRINT>
11640471 11 17897169241496700116
13380535 76 18410294670933973003
13583140 156 17168139023420613315
15775835 57 18334019405910167348
16945 1 18337673005782027651
17134986 127 18410578374618668357
18186145 218 18272381870667978737
20645476 183 18408598171668519395
21524375 3 18335423447925303731
22094290 62 18335419058584713298
231179 274 17968653805271512917
23175994 123 15647323105745291258
23402539 116 18059846273108328044
23419403 2 16323922072468417122
23557571 272 17560515230569604782
23559900 14 17988921185422784794
2748010 2 17333914852425149699
3060560 45 18339643317565256630
474 4 18261115132279299961
537710 114 18271523105348421913
58051976 378 18270678667464673221
7364860 26 18127694816149601031
7832392 63 18408881875901580972
9981440 41 17542499887853393528

>  <PUBCHEM_SHAPE_MULTIPOLES>
309.44
6.42
2.24
0.96
1.9
0.59
-0.15
-3.38
-0.1
-0.14
-0.26
-0.32
-0.17
-0.59

>  <PUBCHEM_SHAPE_SELFOVERLAP>
658.007

>  <PUBCHEM_SHAPE_VOLUME>
174.4

>  <PUBCHEM_COORDINATE_TYPE>
2
5
10

$$$$
10062693
 OpenBabel12092211553D

 27 28  0  0  1  0  0  0  0  0999 V2000
   -4.6519    1.4032   -0.1345 Cl  0  0  0  0  0  0  0  0  0  0  0  0
    3.3311    0.7721    3.9486 O   0  0  0  0  0  0  0  0  0  0  0  0
    4.4067   -0.5106    2.4193 O   0  0  0  0  0  0  0  0  0  0  0  0
   -1.0263   -2.3226   -0.5460 N   0  0  0  0  0  0  0  0  0  0  0  0
    1.0988    0.6490    2.7145 N   0  0  0  0  0  0  0  0  0  0  0  0
    0.6326   -1.1967    0.4063 C   0  0  0  0  0  0  0  0  0  0  0  0
    1.9626   -0.8486    0.9462 C   0  0  0  0  0  0  0  0  0  0  0  0
   -0.5212   -0.3639    0.3950 C   0  0  0  0  0  0  0  0  0  0  0  0
    1.9676   -0.5016    2.4531 C   0  0  1  0  0  0  0  0  0  0  0  0
   -1.5477   -1.0942   -0.2078 C   0  0  0  0  0  0  0  0  0  0  0  0
    0.2906   -2.3941   -0.1788 C   0  0  0  0  0  0  0  0  0  0  0  0
   -0.7916    0.9450    0.8409 C   0  0  0  0  0  0  0  0  0  0  0  0
   -2.8363   -0.5787   -0.3876 C   0  0  0  0  0  0  0  0  0  0  0  0
   -2.0759    1.4737    0.6678 C   0  0  0  0  0  0  0  0  0  0  0  0
    3.3612   -0.1111    2.9162 C   0  0  0  0  0  0  0  0  0  0  0  0
   -3.0811    0.7218    0.0626 C   0  0  0  0  0  0  0  0  0  0  0  0
    2.3639    0.0051    0.3827 H   0  0  0  0  0  0  0  0  0  0  0  0
    2.6561   -1.6797    0.7578 H   0  0  0  0  0  0  0  0  0  0  0  0
    1.6147   -1.3502    3.0508 H   0  0  0  0  0  0  0  0  0  0  0  0
    0.8646   -3.2906   -0.3681 H   0  0  0  0  0  0  0  0  0  0  0  0
   -1.5419   -3.0639   -1.0000 H   0  0  0  0  0  0  0  0  0  0  0  0
   -0.0235    1.5447    1.3203 H   0  0  0  0  0  0  0  0  0  0  0  0
   -3.6113   -1.1739   -0.8604 H   0  0  0  0  0  0  0  0  0  0  0  0
   -2.2756    2.4845    1.0165 H   0  0  0  0  0  0  0  0  0  0  0  0
    1.0429    0.8130    3.7192 H   0  0  0  0  0  0  0  0  0  0  0  0
    0.1500    0.4350    2.4093 H   0  0  0  0  0  0  0  0  0  0  0  0
    4.2331    1.0258    4.2386 H   0  0  0  0  0  0  0  0  0  0  0  0
  1 16  1  0  0  0  0
  2 15  1  0  0  0  0
  2 27  1  0  0  0  0
  3 15  2  0  0  0  0
  4 10  1  0  0  0  0
  4 11  1  0  0  0  0
  4 21  1  0  0  0  0
  5  9  1  0  0  0  0
  5 25  1  0  0  0  0
  5 26  1  0  0  0  0
  6  7  1  0  0  0  0
  6  8  1  0  0  0  0
  6 11  2  0  0  0  0
  7  9  1  0  0  0  0
  7 17  1  0  0  0  0
  7 18  1  0  0  0  0
  8 10  2  0  0  0  0
  8 12  1  0  0  0  0
  9 15  1  0  0  0  0
  9 19  1  1  0  0  0
 10 13  1  0  0  0  0
 11 20  1  0  0  0  0
 12 14  2  0  0  0  0
 12 22  1  0  0  0  0
 13 16  2  0  0  0  0
 13 23  1  0  0  0  0
 14 16  1  0  0  0  0
 14 24  1  0  0  0  0
M  END
>  <PUBCHEM_COMPOUND_CID>
10062693

>  <PUBCHEM_CONFORMER_RMSD>
0.6

>  <PUBCHEM_CONFORMER_DIVERSEORDER>
1
17
14
15
6
5
11
16
19
12
9
13
18
7
3
2
4
8
10

>  <PUBCHEM_MMFF94_PARTIAL_CHARGES>
23
1 -0.18
10 -0.15
11 -0.3
12 -0.15
13 -0.15
14 -0.15
15 0.66
16 0.18
2 -0.65
20 0.15
21 0.27
22 0.15
23 0.15
24 0.15
25 0.36
26 0.36
27 0.5
3 -0.57
4 0.03
5 -0.99
6 -0.18
7 0.18
9 0.33

>  <PUBCHEM_EFFECTIVE_ROTOR_COUNT>
3

>  <PUBCHEM_PHARMACOPHORE_FEATURES>
9
1 2 acceptor
1 3 acceptor
1 4 cation
1 4 donor
1 5 cation
1 5 donor
3 2 3 15 anion
5 4 6 8 10 11 rings
6 8 10 12 13 14 16 rings

>  <PUBCHEM_HEAVY_ATOM_COUNT>
16

>  <PUBCHEM_ATOM_DEF_STEREO_COUNT>
1

>  <PUBCHEM_ATOM_UDEF_STEREO_COUNT>
0

>  <PUBCHEM_BOND_DEF_STEREO_COUNT>
0

>  <PUBCHEM_BOND_UDEF_STEREO_COUNT>
0

>  <PUBCHEM_ISOTOPIC_ATOM_COUNT>
0

>  <PUBCHEM_COMPONENT_COUNT>
1

>  <PUBCHEM_CACTVS_TAUTO_COUNT>
1

>  <PUBCHEM_CONFORMER_ID>
00998B6500000001

>  <PUBCHEM_MMFF94_ENERGY>
20.8722

>  <PUBCHEM_FEATURE_SELFOVERLAP>
45.82

>  <PUBCHEM_SHAPE_FINGERPRINT>
11640471 11 17897169241496700116
13380535 76 18410294670933973003
13583140 156 17168139023420613315
15775835 57 18334019405910167348
16945 1 18337673005782027651
17134986 127 18410578374618668357
18186145 218 18272381870667978737
20645476 183 18408598171668519395
21524375 3 18335423447925303731
22094290 62 18335419058584713298
231179 274 17968653805271512917
23175994 123 15647323105745291258
23402539 116 18059846273108328044
23419403 2 16323922072468417122
23557571 272 17560515230569604782
23559900 14 17988921185422784794
2748010 2 17333914852425149699
3060560 45 18339643317565256630
474 4 18261115132279299961
537710 114 18271523105348421913
58051976 378 18270678667464673221
7364860 26 18127694816149601031
7832392 63 18408881875901580972
9981440 41 17542499887853393528

>  <PUBCHEM_SHAPE_MULTIPOLES>
309.44
6.42
2.24
0.96
1.9
0.59
-0.15
-3.38
-0.1
-0.14
-0.26
-0.32
-0.17
-0.59

>  <PUBCHEM_SHAPE_SELFOVERLAP>
658.007

>  <PUBCHEM_SHAPE_VOLUME>
174.4

>  <PUBCHEM_COORDINATE_TYPE>
2
5
10

$$$$
10062693
 OpenBabel12092211553D

 27 28  0  0  1  0  0  0  0  0999 V2000
   -4.6519    1.4032   -0.1345 Cl  0  0  0  0  0  0  0  0  0  0  0  0
    4.0868    0.4733    1.9269 O   0  0  0  0  0  0  0  0  0  0  0  0
    3.8130   -0.3103    4.0369 O   0  0  0  0  0  0  0  0  0  0  0  0
   -1.0263   -2.3226   -0.5460 N   0  0  0  0  0  0  0  0  0  0  0  0
    1.0988    0.6490    2.7145 N   0  0  0  0  0  0  0  0  0  0  0  0
    0.6326   -1.1967    0.4063 C   0  0  0  0  0  0  0  0  0  0  0  0
    1.9626   -0.8486    0.9462 C   0  0  0  0  0  0  0  0  0  0  0  0
   -0.5212   -0.3639    0.3950 C   0  0  0  0  0  0  0  0  0  0  0  0
    1.9676   -0.5016    2.4531 C   0  0  1  0  0  0  0  0  0  0  0  0
   -1.5477   -1.0942   -0.2078 C   0  0  0  0  0  0  0  0  0  0  0  0
    0.2906   -2.3941   -0.1788 C   0  0  0  0  0  0  0  0  0  0  0  0
   -0.7916    0.9450    0.8409 C   0  0  0  0  0  0  0  0  0  0  0  0
   -2.8363   -0.5787   -0.3876 C   0  0  0  0  0  0  0  0  0  0  0  0
   -2.0759    1.4737    0.6678 C   0  0  0  0  0  0  0  0  0  0  0  0
    3.3612   -0.1111    2.9162 C   0  0  0  0  0  0  0  0  0  0  0  0
   -3.0811    0.7218    0.0626 C   0  0  0  0  0  0  0  0  0  0  0  0
    2.3639    0.0051    0.3827 H   0  0  0  0  0  0  0  0  0  0  0  0
    2.6561   -1.6797    0.7578 H   0  0  0  0  0  0  0  0  0  0  0  0
    1.6147   -1.3502    3.0508 H   0  0  0  0  0  0  0  0  0  0  0  0
    0.8646   -3.2906   -0.3681 H   0  0  0  0  0  0  0  0  0  0  0  0
   -1.5419   -3.0639   -1.0000 H   0  0  0  0  0  0  0  0  0  0  0  0
   -0.0235    1.5447    1.3203 H   0  0  0  0  0  0  0  0  0  0  0  0
   -3.6113   -1.1739   -0.8604 H   0  0  0  0  0  0  0  0  0  0  0  0
   -2.2756    2.4845    1.0165 H   0  0  0  0  0  0  0  0  0  0  0  0
    1.0429    0.8130    3.7192 H   0  0  0  0  0  0  0  0  0  0  0  0
    0.1500    0.4350    2.4093 H   0  0  0  0  0  0  0  0  0  0  0  0
    4.9875    0.7167    2.2297 H   0  0  0  0  0  0  0  0  0  0  0  0
  1 16  1  0  0  0  0
  2 15  1  0  0  0  0
  2 27  1  0  0  0  0
  3 15  2  0  0  0  0
  4 10  1  0  0  0  0
  4 11  1  0  0  0  0
  4 21  1  0  0  0  0
  5  9  1  0  0  0  0
  5 25  1  0  0  0  0
  5 26  1  0  0  0  0
  6  7  1  0  0  0  0
  6  8  1  0  0  0  0
  6 11  2  0  0  0  0
  7  9  1  0  0  0  0
  7 17  1  0  0  0  0
  7 18  1  0  0  0  0
  8 10  2  0  0  0  0
  8 12  1  0  0  0  0
  9 15  1  0  0  0  0
  9 19  1  1  0  0  0
 10 13  1  0  0  0  0
 11 20  1  0  0  0  0
 12 14  2  0  0  0  0
 12 22  1  0  0  0  0
 13 16  2  0  0  0  0
 13 23  1  0  0  0  0
 14 16  1  0  0  0  0
 14 24  1  0  0  0  0
M  END
>  <PUBCHEM_COMPOUND_CID>
10062693

>  <PUBCHEM_CONFORMER_RMSD>
0.6

>  <PUBCHEM_CONFORMER_DIVERSEORDER>
1
17
14
15
6
5
11
16
19
12
9
13
18
7
3
2
4
8
10

>  <PUBCHEM_MMFF94_PARTIAL_CHARGES>
23
1 -0.18
10 -0.15
11 -0.3
12 -0.15
13 -0.15
14 -0.15
15 0.66
16 0.18
2 -0.65
20 0.15
21 0.27
22 0.15
23 0.15
24 0.15
25 0.36
26 0.36
27 0.5
3 -0.57
4 0.03
5 -0.99
6 -0.18
7 0.18
9 0.33

>  <PUBCHEM_EFFECTIVE_ROTOR_COUNT>
3

>  <PUBCHEM_PHARMACOPHORE_FEATURES>
9
1 2 acceptor
1 3 acceptor
1 4 cation
1 4 donor
1 5 cation
1 5 donor
3 2 3 15 anion
5 4 6 8 10 11 rings
6 8 10 12 13 14 16 rings

>  <PUBCHEM_HEAVY_ATOM_COUNT>
16

>  <PUBCHEM_ATOM_DEF_STEREO_COUNT>
1

>  <PUBCHEM_ATOM_UDEF_STEREO_COUNT>
0

>  <PUBCHEM_BOND_DEF_STEREO_COUNT>
0

>  <PUBCHEM_BOND_UDEF_STEREO_COUNT>
0

>  <PUBCHEM_ISOTOPIC_ATOM_COUNT>
0

>  <PUBCHEM_COMPONENT_COUNT>
1

>  <PUBCHEM_CACTVS_TAUTO_COUNT>
1

>  <PUBCHEM_CONFORMER_ID>
00998B6500000001

>  <PUBCHEM_MMFF94_ENERGY>
20.8722

>  <PUBCHEM_FEATURE_SELFOVERLAP>
45.82

>  <PUBCHEM_SHAPE_FINGERPRINT>
11640471 11 17897169241496700116
13380535 76 18410294670933973003
13583140 156 17168139023420613315
15775835 57 18334019405910167348
16945 1 18337673005782027651
17134986 127 18410578374618668357
18186145 218 18272381870667978737
20645476 183 18408598171668519395
21524375 3 18335423447925303731
22094290 62 18335419058584713298
231179 274 17968653805271512917
23175994 123 15647323105745291258
23402539 116 18059846273108328044
23419403 2 16323922072468417122
23557571 272 17560515230569604782
23559900 14 17988921185422784794
2748010 2 17333914852425149699
3060560 45 18339643317565256630
474 4 18261115132279299961
537710 114 18271523105348421913
58051976 378 18270678667464673221
7364860 26 18127694816149601031
7832392 63 18408881875901580972
9981440 41 17542499887853393528

>  <PUBCHEM_SHAPE_MULTIPOLES>
309.44
6.42
2.24
0.96
1.9
0.59
-0.15
-3.38
-0.1
-0.14
-0.26
-0.32
-0.17
-0.59

>  <PUBCHEM_SHAPE_SELFOVERLAP>
658.007

>  <PUBCHEM_SHAPE_VOLUME>
174.4

>  <PUBCHEM_COORDINATE_TYPE>
2
5
10

$$$$
10062693
 OpenBabel12092211553D

 27 28  0  0  1  0  0  0  0  0999 V2000
   -4.6519    1.4032   -0.1345 Cl  0  0  0  0  0  0  0  0  0  0  0  0
    1.8022   -0.6434   -1.7284 O   0  0  0  0  0  0  0  0  0  0  0  0
    3.6790    0.6153   -1.9133 O   0  0  0  0  0  0  0  0  0  0  0  0
   -1.0263   -2.3226   -0.5460 N   0  0  0  0  0  0  0  0  0  0  0  0
    1.7824    1.5653    0.4396 N   0  0  0  0  0  0  0  0  0  0  0  0
    0.6326   -1.1967    0.4063 C   0  0  0  0  0  0  0  0  0  0  0  0
    1.9626   -0.8486    0.9462 C   0  0  0  0  0  0  0  0  0  0  0  0
   -0.5212   -0.3639    0.3950 C   0  0  0  0  0  0  0  0  0  0  0  0
    2.6229    0.3766    0.2726 C   0  0  1  0  0  0  0  0  0  0  0  0
   -1.5477   -1.0942   -0.2078 C   0  0  0  0  0  0  0  0  0  0  0  0
    0.2906   -2.3941   -0.1788 C   0  0  0  0  0  0  0  0  0  0  0  0
   -0.7916    0.9450    0.8409 C   0  0  0  0  0  0  0  0  0  0  0  0
   -2.8363   -0.5787   -0.3876 C   0  0  0  0  0  0  0  0  0  0  0  0
   -2.0759    1.4737    0.6678 C   0  0  0  0  0  0  0  0  0  0  0  0
    2.7771    0.1572   -1.2231 C   0  0  0  0  0  0  0  0  0  0  0  0
   -3.0811    0.7218    0.0626 C   0  0  0  0  0  0  0  0  0  0  0  0
    2.6289   -1.7159    0.8396 H   0  0  0  0  0  0  0  0  0  0  0  0
    1.8771   -0.6723    2.0273 H   0  0  0  0  0  0  0  0  0  0  0  0
    3.6077    0.5796    0.7096 H   0  0  0  0  0  0  0  0  0  0  0  0
    0.8646   -3.2906   -0.3681 H   0  0  0  0  0  0  0  0  0  0  0  0
   -1.5419   -3.0639   -1.0000 H   0  0  0  0  0  0  0  0  0  0  0  0
   -0.0235    1.5447    1.3203 H   0  0  0  0  0  0  0  0  0  0  0  0
   -3.6113   -1.1739   -0.8604 H   0  0  0  0  0  0  0  0  0  0  0  0
   -2.2756    2.4845    1.0165 H   0  0  0  0  0  0  0  0  0  0  0  0
    2.2677    2.3813    0.0680 H   0  0  0  0  0  0  0  0  0  0  0  0
    1.6434    1.7465    1.4330 H   0  0  0  0  0  0  0  0  0  0  0  0
    1.9109   -0.7872   -2.6926 H   0  0  0  0  0  0  0  0  0  0  0  0
  1 16  1  0  0  0  0
  2 15  1  0  0  0  0
  2 27  1  0  0  0  0
  3 15  2  0  0  0  0
  4 10  1  0  0  0  0
  4 11  1  0  0  0  0
  4 21  1  0  0  0  0
  5  9  1  0  0  0  0
  5 25  1  0  0  0  0
  5 26  1  0  0  0  0
  6  7  1  0  0  0  0
  6  8  1  0  0  0  0
  6 11  2  0  0  0  0
  7  9  1  0  0  0  0
  7 17  1  0  0  0  0
  7 18  1  0  0  0  0
  8 10  2  0  0  0  0
  8 12  1  0  0  0  0
  9 15  1  0  0  0  0
  9 19  1  1  0  0  0
 10 13  1  0  0  0  0
 11 20  1  0  0  0  0
 12 14  2  0  0  0  0
 12 22  1  0  0  0  0
 13 16  2  0  0  0  0
 13 23  1  0  0  0  0
 14 16  1  0  0  0  0
 14 24  1  0  0  0  0
M  END
>  <PUBCHEM_COMPOUND_CID>
10062693

>  <PUBCHEM_CONFORMER_RMSD>
0.6

>  <PUBCHEM_CONFORMER_DIVERSEORDER>
1
17
14
15
6
5
11
16
19
12
9
13
18
7
3
2
4
8
10

>  <PUBCHEM_MMFF94_PARTIAL_CHARGES>
23
1 -0.18
10 -0.15
11 -0.3
12 -0.15
13 -0.15
14 -0.15
15 0.66
16 0.18
2 -0.65
20 0.15
21 0.27
22 0.15
23 0.15
24 0.15
25 0.36
26 0.36
27 0.5
3 -0.57
4 0.03
5 -0.99
6 -0.18
7 0.18
9 0.33

>  <PUBCHEM_EFFECTIVE_ROTOR_COUNT>
3

>  <PUBCHEM_PHARMACOPHORE_FEATURES>
9
1 2 acceptor
1 3 acceptor
1 4 cation
1 4 donor
1 5 cation
1 5 donor
3 2 3 15 anion
5 4 6 8 10 11 rings
6 8 10 12 13 14 16 rings

>  <PUBCHEM_HEAVY_ATOM_COUNT>
16

>  <PUBCHEM_ATOM_DEF_STEREO_COUNT>
1

>  <PUBCHEM_ATOM_UDEF_STEREO_COUNT>
0

>  <PUBCHEM_BOND_DEF_STEREO_COUNT>
0

>  <PUBCHEM_BOND_UDEF_STEREO_COUNT>
0

>  <PUBCHEM_ISOTOPIC_ATOM_COUNT>
0

>  <PUBCHEM_COMPONENT_COUNT>
1

>  <PUBCHEM_CACTVS_TAUTO_COUNT>
1

>  <PUBCHEM_CONFORMER_ID>
00998B6500000001

>  <PUBCHEM_MMFF94_ENERGY>
20.8722

>  <PUBCHEM_FEATURE_SELFOVERLAP>
45.82

>  <PUBCHEM_SHAPE_FINGERPRINT>
11640471 11 17897169241496700116
13380535 76 18410294670933973003
13583140 156 17168139023420613315
15775835 57 18334019405910167348
16945 1 18337673005782027651
17134986 127 18410578374618668357
18186145 218 18272381870667978737
20645476 183 18408598171668519395
21524375 3 18335423447925303731
22094290 62 18335419058584713298
231179 274 17968653805271512917
23175994 123 15647323105745291258
23402539 116 18059846273108328044
23419403 2 16323922072468417122
23557571 272 17560515230569604782
23559900 14 17988921185422784794
2748010 2 17333914852425149699
3060560 45 18339643317565256630
474 4 18261115132279299961
537710 114 18271523105348421913
58051976 378 18270678667464673221
7364860 26 18127694816149601031
7832392 63 18408881875901580972
9981440 41 17542499887853393528

>  <PUBCHEM_SHAPE_MULTIPOLES>
309.44
6.42
2.24
0.96
1.9
0.59
-0.15
-3.38
-0.1
-0.14
-0.26
-0.32
-0.17
-0.59

>  <PUBCHEM_SHAPE_SELFOVERLAP>
658.007

>  <PUBCHEM_SHAPE_VOLUME>
174.4

>  <PUBCHEM_COORDINATE_TYPE>
2
5
10

$$$$
10062693
 OpenBabel12092211553D

 27 28  0  0  1  0  0  0  0  0999 V2000
   -4.6519    1.4032   -0.1345 Cl  0  0  0  0  0  0  0  0  0  0  0  0
    3.5939   -3.5820    1.4023 O   0  0  0  0  0  0  0  0  0  0  0  0
    2.4453   -3.7510   -0.5452 O   0  0  0  0  0  0  0  0  0  0  0  0
   -1.0263   -2.3226   -0.5460 N   0  0  0  0  0  0  0  0  0  0  0  0
    3.1638   -1.1867   -1.1889 N   0  0  0  0  0  0  0  0  0  0  0  0
    0.6326   -1.1967    0.4063 C   0  0  0  0  0  0  0  0  0  0  0  0
    1.9626   -0.8486    0.9462 C   0  0  0  0  0  0  0  0  0  0  0  0
   -0.5212   -0.3639    0.3950 C   0  0  0  0  0  0  0  0  0  0  0  0
    3.1429   -1.5464    0.2314 C   0  0  1  0  0  0  0  0  0  0  0  0
   -1.5477   -1.0942   -0.2078 C   0  0  0  0  0  0  0  0  0  0  0  0
    0.2906   -2.3941   -0.1788 C   0  0  0  0  0  0  0  0  0  0  0  0
   -0.7916    0.9450    0.8409 C   0  0  0  0  0  0  0  0  0  0  0  0
   -2.8363   -0.5787   -0.3876 C   0  0  0  0  0  0  0  0  0  0  0  0
   -2.0759    1.4737    0.6678 C   0  0  0  0  0  0  0  0  0  0  0  0
    3.0013   -3.0579    0.2974 C   0  0  0  0  0  0  0  0  0  0  0  0
   -3.0811    0.7218    0.0626 C   0  0  0  0  0  0  0  0  0  0  0  0
    1.9918   -1.1041    2.0145 H   0  0  0  0  0  0  0  0  0  0  0  0
    2.0962    0.2410    0.8988 H   0  0  0  0  0  0  0  0  0  0  0  0
    4.0995   -1.2549    0.6808 H   0  0  0  0  0  0  0  0  0  0  0  0
    0.8646   -3.2906   -0.3681 H   0  0  0  0  0  0  0  0  0  0  0  0
   -1.5419   -3.0639   -1.0000 H   0  0  0  0  0  0  0  0  0  0  0  0
   -0.0235    1.5447    1.3203 H   0  0  0  0  0  0  0  0  0  0  0  0
   -3.6113   -1.1739   -0.8604 H   0  0  0  0  0  0  0  0  0  0  0  0
   -2.2756    2.4845    1.0165 H   0  0  0  0  0  0  0  0  0  0  0  0
    3.9940   -1.5824   -1.6290 H   0  0  0  0  0  0  0  0  0  0  0  0
    3.2486   -0.1752   -1.2823 H   0  0  0  0  0  0  0  0  0  0  0  0
    3.5054   -4.5583    1.4359 H   0  0  0  0  0  0  0  0  0  0  0  0
  1 16  1  0  0  0  0
  2 15  1  0  0  0  0
  2 27  1  0  0  0  0
  3 15  2  0  0  0  0
  4 10  1  0  0  0  0
  4 11  1  0  0  0  0
  4 21  1  0  0  0  0
  5  9  1  0  0  0  0
  5 25  1  0  0  0  0
  5 26  1  0  0  0  0
  6  7  1  0  0  0  0
  6  8  1  0  0  0  0
  6 11  2  0  0  0  0
  7  9  1  0  0  0  0
  7 17  1  0  0  0  0
  7 18  1  0  0  0  0
  8 10  2  0  0  0  0
  8 12  1  0  0  0  0
  9 15  1  0  0  0  0
  9 19  1  1  0  0  0
 10 13  1  0  0  0  0
 11 20  1  0  0  0  0
 12 14  2  0  0  0  0
 12 22  1  0  0  0  0
 13 16  2  0  0  0  0
 13 23  1  0  0  0  0
 14 16  1  0  0  0  0
 14 24  1  0  0  0  0
M  END
>  <PUBCHEM_COMPOUND_CID>
10062693

>  <PUBCHEM_CONFORMER_RMSD>
0.6

>  <PUBCHEM_CONFORMER_DIVERSEORDER>
1
17
14
15
6
5
11
16
19
12
9
13
18
7
3
2
4
8
10

>  <PUBCHEM_MMFF94_PARTIAL_CHARGES>
23
1 -0.18
10 -0.15
11 -0.3
12 -0.15
13 -0.15
14 -0.15
15 0.66
16 0.18
2 -0.65
20 0.15
21 0.27
22 0.15
23 0.15
24 0.15
25 0.36
26 0.36
27 0.5
3 -0.57
4 0.03
5 -0.99
6 -0.18
7 0.18
9 0.33

>  <PUBCHEM_EFFECTIVE_ROTOR_COUNT>
3

>  <PUBCHEM_PHARMACOPHORE_FEATURES>
9
1 2 acceptor
1 3 acceptor
1 4 cation
1 4 donor
1 5 cation
1 5 donor
3 2 3 15 anion
5 4 6 8 10 11 rings
6 8 10 12 13 14 16 rings

>  <PUBCHEM_HEAVY_ATOM_COUNT>
16

>  <PUBCHEM_ATOM_DEF_STEREO_COUNT>
1

>  <PUBCHEM_ATOM_UDEF_STEREO_COUNT>
0

>  <PUBCHEM_BOND_DEF_STEREO_COUNT>
0

>  <PUBCHEM_BOND_UDEF_STEREO_COUNT>
0

>  <PUBCHEM_ISOTOPIC_ATOM_COUNT>
0

>  <PUBCHEM_COMPONENT_COUNT>
1

>  <PUBCHEM_CACTVS_TAUTO_COUNT>
1

>  <PUBCHEM_CONFORMER_ID>
00998B6500000001

>  <PUBCHEM_MMFF94_ENERGY>
20.8722

>  <PUBCHEM_FEATURE_SELFOVERLAP>
45.82

>  <PUBCHEM_SHAPE_FINGERPRINT>
11640471 11 17897169241496700116
13380535 76 18410294670933973003
13583140 156 17168139023420613315
15775835 57 18334019405910167348
16945 1 18337673005782027651
17134986 127 18410578374618668357
18186145 218 18272381870667978737
20645476 183 18408598171668519395
21524375 3 18335423447925303731
22094290 62 18335419058584713298
231179 274 17968653805271512917
23175994 123 15647323105745291258
23402539 116 18059846273108328044
23419403 2 16323922072468417122
23557571 272 17560515230569604782
23559900 14 17988921185422784794
2748010 2 17333914852425149699
3060560 45 18339643317565256630
474 4 18261115132279299961
537710 114 18271523105348421913
58051976 378 18270678667464673221
7364860 26 18127694816149601031
7832392 63 18408881875901580972
9981440 41 17542499887853393528

>  <PUBCHEM_SHAPE_MULTIPOLES>
309.44
6.42
2.24
0.96
1.9
0.59
-0.15
-3.38
-0.1
-0.14
-0.26
-0.32
-0.17
-0.59

>  <PUBCHEM_SHAPE_SELFOVERLAP>
658.007

>  <PUBCHEM_SHAPE_VOLUME>
174.4

>  <PUBCHEM_COORDINATE_TYPE>
2
5
10

$$$$
10062693
 OpenBabel12092211553D

 27 28  0  0  1  0  0  0  0  0999 V2000
   -4.6519    1.4032   -0.1345 Cl  0  0  0  0  0  0  0  0  0  0  0  0
    0.9178   -0.4430    3.3886 O   0  0  0  0  0  0  0  0  0  0  0  0
    0.5483    1.7680    3.0483 O   0  0  0  0  0  0  0  0  0  0  0  0
   -1.0263   -2.3226   -0.5460 N   0  0  0  0  0  0  0  0  0  0  0  0
    3.4052    0.8266    2.0545 N   0  0  0  0  0  0  0  0  0  0  0  0
    0.6326   -1.1967    0.4063 C   0  0  0  0  0  0  0  0  0  0  0  0
    1.9626   -0.8486    0.9462 C   0  0  0  0  0  0  0  0  0  0  0  0
   -0.5212   -0.3639    0.3950 C   0  0  0  0  0  0  0  0  0  0  0  0
    2.0543    0.5735    1.5465 C   0  0  1  0  0  0  0  0  0  0  0  0
   -1.5477   -1.0942   -0.2078 C   0  0  0  0  0  0  0  0  0  0  0  0
    0.2906   -2.3941   -0.1788 C   0  0  0  0  0  0  0  0  0  0  0  0
   -0.7916    0.9450    0.8409 C   0  0  0  0  0  0  0  0  0  0  0  0
   -2.8363   -0.5787   -0.3876 C   0  0  0  0  0  0  0  0  0  0  0  0
   -2.0759    1.4737    0.6678 C   0  0  0  0  0  0  0  0  0  0  0  0
    1.1080    0.7278    2.7255 C   0  0  0  0  0  0  0  0  0  0  0  0
   -3.0811    0.7218    0.0626 C   0  0  0  0  0  0  0  0  0  0  0  0
    2.7091   -0.9462    0.1458 H   0  0  0  0  0  0  0  0  0  0  0  0
    2.2467   -1.5882    1.7075 H   0  0  0  0  0  0  0  0  0  0  0  0
    1.8156    1.3324    0.7922 H   0  0  0  0  0  0  0  0  0  0  0  0
    0.8646   -3.2906   -0.3681 H   0  0  0  0  0  0  0  0  0  0  0  0
   -1.5419   -3.0639   -1.0000 H   0  0  0  0  0  0  0  0  0  0  0  0
   -0.0235    1.5447    1.3203 H   0  0  0  0  0  0  0  0  0  0  0  0
   -3.6113   -1.1739   -0.8604 H   0  0  0  0  0  0  0  0  0  0  0  0
   -2.2756    2.4845    1.0165 H   0  0  0  0  0  0  0  0  0  0  0  0
    3.4761    1.7943    2.3678 H   0  0  0  0  0  0  0  0  0  0  0  0
    4.0784    0.7245    1.2960 H   0  0  0  0  0  0  0  0  0  0  0  0
    0.3008   -0.3388    4.1440 H   0  0  0  0  0  0  0  0  0  0  0  0
  1 16  1  0  0  0  0
  2 15  1  0  0  0  0
  2 27  1  0  0  0  0
  3 15  2  0  0  0  0
  4 10  1  0  0  0  0
  4 11  1  0  0  0  0
  4 21  1  0  0  0  0
  5  9  1  0  0  0  0
  5 25  1  0  0  0  0
  5 26  1  0  0  0  0
  6  7  1  0  0  0  0
  6  8  1  0  0  0  0
  6 11  2  0  0  0  0
  7  9  1  0  0  0  0
  7 17  1  0  0  0  0
  7 18  1  0  0  0  0
  8 10  2  0  0  0  0
  8 12  1  0  0  0  0
  9 15  1  0  0  0  0
  9 19  1  6  0  0  0
 10 13  1  0  0  0  0
 11 20  1  0  0  0  0
 12 14  2  0  0  0  0
 12 22  1  0  0  0  0
 13 16  2  0  0  0  0
 13 23  1  0  0  0  0
 14 16  1  0  0  0  0
 14 24  1  0  0  0  0
M  END
>  <PUBCHEM_COMPOUND_CID>
10062693

>  <PUBCHEM_CONFORMER_RMSD>
0.6

>  <PUBCHEM_CONFORMER_DIVERSEORDER>
1
17
14
15
6
5
11
16
19
12
9
13
18
7
3
2
4
8
10

>  <PUBCHEM_MMFF94_PARTIAL_CHARGES>
23
1 -0.18
10 -0.15
11 -0.3
12 -0.15
13 -0.15
14 -0.15
15 0.66
16 0.18
2 -0.65
20 0.15
21 0.27
22 0.15
23 0.15
24 0.15
25 0.36
26 0.36
27 0.5
3 -0.57
4 0.03
5 -0.99
6 -0.18
7 0.18
9 0.33

>  <PUBCHEM_EFFECTIVE_ROTOR_COUNT>
3

>  <PUBCHEM_PHARMACOPHORE_FEATURES>
9
1 2 acceptor
1 3 acceptor
1 4 cation
1 4 donor
1 5 cation
1 5 donor
3 2 3 15 anion
5 4 6 8 10 11 rings
6 8 10 12 13 14 16 rings

>  <PUBCHEM_HEAVY_ATOM_COUNT>
16

>  <PUBCHEM_ATOM_DEF_STEREO_COUNT>
1

>  <PUBCHEM_ATOM_UDEF_STEREO_COUNT>
0

>  <PUBCHEM_BOND_DEF_STEREO_COUNT>
0

>  <PUBCHEM_BOND_UDEF_STEREO_COUNT>
0

>  <PUBCHEM_ISOTOPIC_ATOM_COUNT>
0

>  <PUBCHEM_COMPONENT_COUNT>
1

>  <PUBCHEM_CACTVS_TAUTO_COUNT>
1

>  <PUBCHEM_CONFORMER_ID>
00998B6500000001

>  <PUBCHEM_MMFF94_ENERGY>
20.8722

>  <PUBCHEM_FEATURE_SELFOVERLAP>
45.82

>  <PUBCHEM_SHAPE_FINGERPRINT>
11640471 11 17897169241496700116
13380535 76 18410294670933973003
13583140 156 17168139023420613315
15775835 57 18334019405910167348
16945 1 18337673005782027651
17134986 127 18410578374618668357
18186145 218 18272381870667978737
20645476 183 18408598171668519395
21524375 3 18335423447925303731
22094290 62 18335419058584713298
231179 274 17968653805271512917
23175994 123 15647323105745291258
23402539 116 18059846273108328044
23419403 2 16323922072468417122
23557571 272 17560515230569604782
23559900 14 17988921185422784794
2748010 2 17333914852425149699
3060560 45 18339643317565256630
474 4 18261115132279299961
537710 114 18271523105348421913
58051976 378 18270678667464673221
7364860 26 18127694816149601031
7832392 63 18408881875901580972
9981440 41 17542499887853393528

>  <PUBCHEM_SHAPE_MULTIPOLES>
309.44
6.42
2.24
0.96
1.9
0.59
-0.15
-3.38
-0.1
-0.14
-0.26
-0.32
-0.17
-0.59

>  <PUBCHEM_SHAPE_SELFOVERLAP>
658.007

>  <PUBCHEM_SHAPE_VOLUME>
174.4

>  <PUBCHEM_COORDINATE_TYPE>
2
5
10

$$$$
10062693
 OpenBabel12092211553D

 27 28  0  0  1  0  0  0  0  0999 V2000
   -4.6519    1.4032   -0.1345 Cl  0  0  0  0  0  0  0  0  0  0  0  0
    5.0162   -0.0625    0.3150 O   0  0  0  0  0  0  0  0  0  0  0  0
    5.0113   -1.7928    1.7803 O   0  0  0  0  0  0  0  0  0  0  0  0
   -1.0263   -2.3226   -0.5460 N   0  0  0  0  0  0  0  0  0  0  0  0
    3.0175   -3.0022    0.3419 N   0  0  0  0  0  0  0  0  0  0  0  0
    0.6326   -1.1967    0.4063 C   0  0  0  0  0  0  0  0  0  0  0  0
    1.9626   -0.8486    0.9462 C   0  0  0  0  0  0  0  0  0  0  0  0
   -0.5212   -0.3639    0.3950 C   0  0  0  0  0  0  0  0  0  0  0  0
    3.1429   -1.5464    0.2314 C   0  0  1  0  0  0  0  0  0  0  0  0
   -1.5477   -1.0942   -0.2078 C   0  0  0  0  0  0  0  0  0  0  0  0
    0.2906   -2.3941   -0.1788 C   0  0  0  0  0  0  0  0  0  0  0  0
   -0.7916    0.9450    0.8409 C   0  0  0  0  0  0  0  0  0  0  0  0
   -2.8363   -0.5787   -0.3876 C   0  0  0  0  0  0  0  0  0  0  0  0
   -2.0759    1.4737    0.6678 C   0  0  0  0  0  0  0  0  0  0  0  0
    4.4669   -1.1716    0.8761 C   0  0  0  0  0  0  0  0  0  0  0  0
   -3.0811    0.7218    0.0626 C   0  0  0  0  0  0  0  0  0  0  0  0
    1.9918   -1.1041    2.0145 H   0  0  0  0  0  0  0  0  0  0  0  0
    2.0962    0.2410    0.8988 H   0  0  0  0  0  0  0  0  0  0  0  0
    3.1712   -1.2768   -0.8308 H   0  0  0  0  0  0  0  0  0  0  0  0
    0.8646   -3.2906   -0.3681 H   0  0  0  0  0  0  0  0  0  0  0  0
   -1.5419   -3.0639   -1.0000 H   0  0  0  0  0  0  0  0  0  0  0  0
   -0.0235    1.5447    1.3203 H   0  0  0  0  0  0  0  0  0  0  0  0
   -3.6113   -1.1739   -0.8604 H   0  0  0  0  0  0  0  0  0  0  0  0
   -2.2756    2.4845    1.0165 H   0  0  0  0  0  0  0  0  0  0  0  0
    3.7519   -3.4504   -0.2052 H   0  0  0  0  0  0  0  0  0  0  0  0
    2.1346   -3.2998   -0.0715 H   0  0  0  0  0  0  0  0  0  0  0  0
    5.8737    0.1704    0.7303 H   0  0  0  0  0  0  0  0  0  0  0  0
  1 16  1  0  0  0  0
  2 15  1  0  0  0  0
  2 27  1  0  0  0  0
  3 15  2  0  0  0  0
  4 10  1  0  0  0  0
  4 11  1  0  0  0  0
  4 21  1  0  0  0  0
  5  9  1  0  0  0  0
  5 25  1  0  0  0  0
  5 26  1  0  0  0  0
  6  7  1  0  0  0  0
  6  8  1  0  0  0  0
  6 11  2  0  0  0  0
  7  9  1  0  0  0  0
  7 17  1  0  0  0  0
  7 18  1  0  0  0  0
  8 10  2  0  0  0  0
  8 12  1  0  0  0  0
  9 15  1  0  0  0  0
  9 19  1  6  0  0  0
 10 13  1  0  0  0  0
 11 20  1  0  0  0  0
 12 14  2  0  0  0  0
 12 22  1  0  0  0  0
 13 16  2  0  0  0  0
 13 23  1  0  0  0  0
 14 16  1  0  0  0  0
 14 24  1  0  0  0  0
M  END
>  <PUBCHEM_COMPOUND_CID>
10062693

>  <PUBCHEM_CONFORMER_RMSD>
0.6

>  <PUBCHEM_CONFORMER_DIVERSEORDER>
1
17
14
15
6
5
11
16
19
12
9
13
18
7
3
2
4
8
10

>  <PUBCHEM_MMFF94_PARTIAL_CHARGES>
23
1 -0.18
10 -0.15
11 -0.3
12 -0.15
13 -0.15
14 -0.15
15 0.66
16 0.18
2 -0.65
20 0.15
21 0.27
22 0.15
23 0.15
24 0.15
25 0.36
26 0.36
27 0.5
3 -0.57
4 0.03
5 -0.99
6 -0.18
7 0.18
9 0.33

>  <PUBCHEM_EFFECTIVE_ROTOR_COUNT>
3

>  <PUBCHEM_PHARMACOPHORE_FEATURES>
9
1 2 acceptor
1 3 acceptor
1 4 cation
1 4 donor
1 5 cation
1 5 donor
3 2 3 15 anion
5 4 6 8 10 11 rings
6 8 10 12 13 14 16 rings

>  <PUBCHEM_HEAVY_ATOM_COUNT>
16

>  <PUBCHEM_ATOM_DEF_STEREO_COUNT>
1

>  <PUBCHEM_ATOM_UDEF_STEREO_COUNT>
0

>  <PUBCHEM_BOND_DEF_STEREO_COUNT>
0

>  <PUBCHEM_BOND_UDEF_STEREO_COUNT>
0

>  <PUBCHEM_ISOTOPIC_ATOM_COUNT>
0

>  <PUBCHEM_COMPONENT_COUNT>
1

>  <PUBCHEM_CACTVS_TAUTO_COUNT>
1

>  <PUBCHEM_CONFORMER_ID>
00998B6500000001

>  <PUBCHEM_MMFF94_ENERGY>
20.8722

>  <PUBCHEM_FEATURE_SELFOVERLAP>
45.82

>  <PUBCHEM_SHAPE_FINGERPRINT>
11640471 11 17897169241496700116
13380535 76 18410294670933973003
13583140 156 17168139023420613315
15775835 57 18334019405910167348
16945 1 18337673005782027651
17134986 127 18410578374618668357
18186145 218 18272381870667978737
20645476 183 18408598171668519395
21524375 3 18335423447925303731
22094290 62 18335419058584713298
231179 274 17968653805271512917
23175994 123 15647323105745291258
23402539 116 18059846273108328044
23419403 2 16323922072468417122
23557571 272 17560515230569604782
23559900 14 17988921185422784794
2748010 2 17333914852425149699
3060560 45 18339643317565256630
474 4 18261115132279299961
537710 114 18271523105348421913
58051976 378 18270678667464673221
7364860 26 18127694816149601031
7832392 63 18408881875901580972
9981440 41 17542499887853393528

>  <PUBCHEM_SHAPE_MULTIPOLES>
309.44
6.42
2.24
0.96
1.9
0.59
-0.15
-3.38
-0.1
-0.14
-0.26
-0.32
-0.17
-0.59

>  <PUBCHEM_SHAPE_SELFOVERLAP>
658.007

>  <PUBCHEM_SHAPE_VOLUME>
174.4

>  <PUBCHEM_COORDINATE_TYPE>
2
5
10

$$$$
10062693
 OpenBabel12092211553D

 27 28  0  0  1  0  0  0  0  0999 V2000
   -4.6519    1.4032   -0.1345 Cl  0  0  0  0  0  0  0  0  0  0  0  0
    1.3732    2.1695   -0.6979 O   0  0  0  0  0  0  0  0  0  0  0  0
    1.5168    2.1253    1.5644 O   0  0  0  0  0  0  0  0  0  0  0  0
   -1.0263   -2.3226   -0.5460 N   0  0  0  0  0  0  0  0  0  0  0  0
    3.9330    0.6440    0.8720 N   0  0  0  0  0  0  0  0  0  0  0  0
    0.6326   -1.1967    0.4063 C   0  0  0  0  0  0  0  0  0  0  0  0
    1.9626   -0.8486    0.9462 C   0  0  0  0  0  0  0  0  0  0  0  0
   -0.5212   -0.3639    0.3950 C   0  0  0  0  0  0  0  0  0  0  0  0
    2.6229    0.3766    0.2726 C   0  0  1  0  0  0  0  0  0  0  0  0
   -1.5477   -1.0942   -0.2078 C   0  0  0  0  0  0  0  0  0  0  0  0
    0.2906   -2.3941   -0.1788 C   0  0  0  0  0  0  0  0  0  0  0  0
   -0.7916    0.9450    0.8409 C   0  0  0  0  0  0  0  0  0  0  0  0
   -2.8363   -0.5787   -0.3876 C   0  0  0  0  0  0  0  0  0  0  0  0
   -2.0759    1.4737    0.6678 C   0  0  0  0  0  0  0  0  0  0  0  0
    1.7848    1.6274    0.4782 C   0  0  0  0  0  0  0  0  0  0  0  0
   -3.0811    0.7218    0.0626 C   0  0  0  0  0  0  0  0  0  0  0  0
    2.6289   -1.7159    0.8396 H   0  0  0  0  0  0  0  0  0  0  0  0
    1.8771   -0.6723    2.0273 H   0  0  0  0  0  0  0  0  0  0  0  0
    2.7574    0.2067   -0.8021 H   0  0  0  0  0  0  0  0  0  0  0  0
    0.8646   -3.2906   -0.3681 H   0  0  0  0  0  0  0  0  0  0  0  0
   -1.5419   -3.0639   -1.0000 H   0  0  0  0  0  0  0  0  0  0  0  0
   -0.0235    1.5447    1.3203 H   0  0  0  0  0  0  0  0  0  0  0  0
   -3.6113   -1.1739   -0.8604 H   0  0  0  0  0  0  0  0  0  0  0  0
   -2.2756    2.4845    1.0165 H   0  0  0  0  0  0  0  0  0  0  0  0
    4.3939    1.3976    0.3628 H   0  0  0  0  0  0  0  0  0  0  0  0
    4.5294   -0.1758    0.7655 H   0  0  0  0  0  0  0  0  0  0  0  0
    0.8388    2.9802   -0.5592 H   0  0  0  0  0  0  0  0  0  0  0  0
  1 16  1  0  0  0  0
  2 15  1  0  0  0  0
  2 27  1  0  0  0  0
  3 15  2  0  0  0  0
  4 10  1  0  0  0  0
  4 11  1  0  0  0  0
  4 21  1  0  0  0  0
  5  9  1  0  0  0  0
  5 25  1  0  0  0  0
  5 26  1  0  0  0  0
  6  7  1  0  0  0  0
  6  8  1  0  0  0  0
  6 11  2  0  0  0  0
  7  9  1  0  0  0  0
  7 17  1  0  0  0  0
  7 18  1  0  0  0  0
  8 10  2  0  0  0  0
  8 12  1  0  0  0  0
  9 15  1  0  0  0  0
  9 19  1  6  0  0  0
 10 13  1  0  0  0  0
 11 20  1  0  0  0  0
 12 14  2  0  0  0  0
 12 22  1  0  0  0  0
 13 16  2  0  0  0  0
 13 23  1  0  0  0  0
 14 16  1  0  0  0  0
 14 24  1  0  0  0  0
M  END
>  <PUBCHEM_COMPOUND_CID>
10062693

>  <PUBCHEM_CONFORMER_RMSD>
0.6

>  <PUBCHEM_CONFORMER_DIVERSEORDER>
1
17
14
15
6
5
11
16
19
12
9
13
18
7
3
2
4
8
10

>  <PUBCHEM_MMFF94_PARTIAL_CHARGES>
23
1 -0.18
10 -0.15
11 -0.3
12 -0.15
13 -0.15
14 -0.15
15 0.66
16 0.18
2 -0.65
20 0.15
21 0.27
22 0.15
23 0.15
24 0.15
25 0.36
26 0.36
27 0.5
3 -0.57
4 0.03
5 -0.99
6 -0.18
7 0.18
9 0.33

>  <PUBCHEM_EFFECTIVE_ROTOR_COUNT>
3

>  <PUBCHEM_PHARMACOPHORE_FEATURES>
9
1 2 acceptor
1 3 acceptor
1 4 cation
1 4 donor
1 5 cation
1 5 donor
3 2 3 15 anion
5 4 6 8 10 11 rings
6 8 10 12 13 14 16 rings

>  <PUBCHEM_HEAVY_ATOM_COUNT>
16

>  <PUBCHEM_ATOM_DEF_STEREO_COUNT>
1

>  <PUBCHEM_ATOM_UDEF_STEREO_COUNT>
0

>  <PUBCHEM_BOND_DEF_STEREO_COUNT>
0

>  <PUBCHEM_BOND_UDEF_STEREO_COUNT>
0

>  <PUBCHEM_ISOTOPIC_ATOM_COUNT>
0

>  <PUBCHEM_COMPONENT_COUNT>
1

>  <PUBCHEM_CACTVS_TAUTO_COUNT>
1

>  <PUBCHEM_CONFORMER_ID>
00998B6500000001

>  <PUBCHEM_MMFF94_ENERGY>
20.8722

>  <PUBCHEM_FEATURE_SELFOVERLAP>
45.82

>  <PUBCHEM_SHAPE_FINGERPRINT>
11640471 11 17897169241496700116
13380535 76 18410294670933973003
13583140 156 17168139023420613315
15775835 57 18334019405910167348
16945 1 18337673005782027651
17134986 127 18410578374618668357
18186145 218 18272381870667978737
20645476 183 18408598171668519395
21524375 3 18335423447925303731
22094290 62 18335419058584713298
231179 274 17968653805271512917
23175994 123 15647323105745291258
23402539 116 18059846273108328044
23419403 2 16323922072468417122
23557571 272 17560515230569604782
23559900 14 17988921185422784794
2748010 2 17333914852425149699
3060560 45 18339643317565256630
474 4 18261115132279299961
537710 114 18271523105348421913
58051976 378 18270678667464673221
7364860 26 18127694816149601031
7832392 63 18408881875901580972
9981440 41 17542499887853393528

>  <PUBCHEM_SHAPE_MULTIPOLES>
309.44
6.42
2.24
0.96
1.9
0.59
-0.15
-3.38
-0.1
-0.14
-0.26
-0.32
-0.17
-0.59

>  <PUBCHEM_SHAPE_SELFOVERLAP>
658.007

>  <PUBCHEM_SHAPE_VOLUME>
174.4

>  <PUBCHEM_COORDINATE_TYPE>
2
5
10

$$$$
10062693
 OpenBabel12092211553D

 27 28  0  0  1  0  0  0  0  0999 V2000
   -4.6519    1.4032   -0.1345 Cl  0  0  0  0  0  0  0  0  0  0  0  0
    4.8135   -2.0272    1.8734 O   0  0  0  0  0  0  0  0  0  0  0  0
    5.1506   -0.2030    0.5699 O   0  0  0  0  0  0  0  0  0  0  0  0
   -1.0263   -2.3226   -0.5460 N   0  0  0  0  0  0  0  0  0  0  0  0
    3.0175   -3.0022    0.3419 N   0  0  0  0  0  0  0  0  0  0  0  0
    0.6326   -1.1967    0.4063 C   0  0  0  0  0  0  0  0  0  0  0  0
    1.9626   -0.8486    0.9462 C   0  0  0  0  0  0  0  0  0  0  0  0
   -0.5212   -0.3639    0.3950 C   0  0  0  0  0  0  0  0  0  0  0  0
    3.1429   -1.5464    0.2314 C   0  0  1  0  0  0  0  0  0  0  0  0
   -1.5477   -1.0942   -0.2078 C   0  0  0  0  0  0  0  0  0  0  0  0
    0.2906   -2.3941   -0.1788 C   0  0  0  0  0  0  0  0  0  0  0  0
   -0.7916    0.9450    0.8409 C   0  0  0  0  0  0  0  0  0  0  0  0
   -2.8363   -0.5787   -0.3876 C   0  0  0  0  0  0  0  0  0  0  0  0
   -2.0759    1.4737    0.6678 C   0  0  0  0  0  0  0  0  0  0  0  0
    4.4669   -1.1716    0.8761 C   0  0  0  0  0  0  0  0  0  0  0  0
   -3.0811    0.7218    0.0626 C   0  0  0  0  0  0  0  0  0  0  0  0
    1.9918   -1.1041    2.0145 H   0  0  0  0  0  0  0  0  0  0  0  0
    2.0962    0.2410    0.8988 H   0  0  0  0  0  0  0  0  0  0  0  0
    3.1712   -1.2768   -0.8308 H   0  0  0  0  0  0  0  0  0  0  0  0
    0.8646   -3.2906   -0.3681 H   0  0  0  0  0  0  0  0  0  0  0  0
   -1.5419   -3.0639   -1.0000 H   0  0  0  0  0  0  0  0  0  0  0  0
   -0.0235    1.5447    1.3203 H   0  0  0  0  0  0  0  0  0  0  0  0
   -3.6113   -1.1739   -0.8604 H   0  0  0  0  0  0  0  0  0  0  0  0
   -2.2756    2.4845    1.0165 H   0  0  0  0  0  0  0  0  0  0  0  0
    3.7519   -3.4504   -0.2052 H   0  0  0  0  0  0  0  0  0  0  0  0
    2.1346   -3.2998   -0.0715 H   0  0  0  0  0  0  0  0  0  0  0  0
    5.6652   -1.7764    2.2903 H   0  0  0  0  0  0  0  0  0  0  0  0
  1 16  1  0  0  0  0
  2 15  1  0  0  0  0
  2 27  1  0  0  0  0
  3 15  2  0  0  0  0
  4 10  1  0  0  0  0
  4 11  1  0  0  0  0
  4 21  1  0  0  0  0
  5  9  1  0  0  0  0
  5 25  1  0  0  0  0
  5 26  1  0  0  0  0
  6  7  1  0  0  0  0
  6  8  1  0  0  0  0
  6 11  2  0  0  0  0
  7  9  1  0  0  0  0
  7 17  1  0  0  0  0
  7 18  1  0  0  0  0
  8 10  2  0  0  0  0
  8 12  1  0  0  0  0
  9 15  1  0  0  0  0
  9 19  1  6  0  0  0
 10 13  1  0  0  0  0
 11 20  1  0  0  0  0
 12 14  2  0  0  0  0
 12 22  1  0  0  0  0
 13 16  2  0  0  0  0
 13 23  1  0  0  0  0
 14 16  1  0  0  0  0
 14 24  1  0  0  0  0
M  END
>  <PUBCHEM_COMPOUND_CID>
10062693

>  <PUBCHEM_CONFORMER_RMSD>
0.6

>  <PUBCHEM_CONFORMER_DIVERSEORDER>
1
17
14
15
6
5
11
16
19
12
9
13
18
7
3
2
4
8
10

>  <PUBCHEM_MMFF94_PARTIAL_CHARGES>
23
1 -0.18
10 -0.15
11 -0.3
12 -0.15
13 -0.15
14 -0.15
15 0.66
16 0.18
2 -0.65
20 0.15
21 0.27
22 0.15
23 0.15
24 0.15
25 0.36
26 0.36
27 0.5
3 -0.57
4 0.03
5 -0.99
6 -0.18
7 0.18
9 0.33

>  <PUBCHEM_EFFECTIVE_ROTOR_COUNT>
3

>  <PUBCHEM_PHARMACOPHORE_FEATURES>
9
1 2 acceptor
1 3 acceptor
1 4 cation
1 4 donor
1 5 cation
1 5 donor
3 2 3 15 anion
5 4 6 8 10 11 rings
6 8 10 12 13 14 16 rings

>  <PUBCHEM_HEAVY_ATOM_COUNT>
16

>  <PUBCHEM_ATOM_DEF_STEREO_COUNT>
1

>  <PUBCHEM_ATOM_UDEF_STEREO_COUNT>
0

>  <PUBCHEM_BOND_DEF_STEREO_COUNT>
0

>  <PUBCHEM_BOND_UDEF_STEREO_COUNT>
0

>  <PUBCHEM_ISOTOPIC_ATOM_COUNT>
0

>  <PUBCHEM_COMPONENT_COUNT>
1

>  <PUBCHEM_CACTVS_TAUTO_COUNT>
1

>  <PUBCHEM_CONFORMER_ID>
00998B6500000001

>  <PUBCHEM_MMFF94_ENERGY>
20.8722

>  <PUBCHEM_FEATURE_SELFOVERLAP>
45.82

>  <PUBCHEM_SHAPE_FINGERPRINT>
11640471 11 17897169241496700116
13380535 76 18410294670933973003
13583140 156 17168139023420613315
15775835 57 18334019405910167348
16945 1 18337673005782027651
17134986 127 18410578374618668357
18186145 218 18272381870667978737
20645476 183 18408598171668519395
21524375 3 18335423447925303731
22094290 62 18335419058584713298
231179 274 17968653805271512917
23175994 123 15647323105745291258
23402539 116 18059846273108328044
23419403 2 16323922072468417122
23557571 272 17560515230569604782
23559900 14 17988921185422784794
2748010 2 17333914852425149699
3060560 45 18339643317565256630
474 4 18261115132279299961
537710 114 18271523105348421913
58051976 378 18270678667464673221
7364860 26 18127694816149601031
7832392 63 18408881875901580972
9981440 41 17542499887853393528

>  <PUBCHEM_SHAPE_MULTIPOLES>
309.44
6.42
2.24
0.96
1.9
0.59
-0.15
-3.38
-0.1
-0.14
-0.26
-0.32
-0.17
-0.59

>  <PUBCHEM_SHAPE_SELFOVERLAP>
658.007

>  <PUBCHEM_SHAPE_VOLUME>
174.4

>  <PUBCHEM_COORDINATE_TYPE>
2
5
10

$$$$
10062693
 OpenBabel12092211553D

 27 28  0  0  1  0  0  0  0  0999 V2000
   -4.6519    1.4032   -0.1345 Cl  0  0  0  0  0  0  0  0  0  0  0  0
    0.6581    2.0030    2.8600 O   0  0  0  0  0  0  0  0  0  0  0  0
    0.7901   -0.1693    3.4960 O   0  0  0  0  0  0  0  0  0  0  0  0
   -1.0263   -2.3226   -0.5460 N   0  0  0  0  0  0  0  0  0  0  0  0
    3.4052    0.8266    2.0545 N   0  0  0  0  0  0  0  0  0  0  0  0
    0.6326   -1.1967    0.4063 C   0  0  0  0  0  0  0  0  0  0  0  0
    1.9626   -0.8486    0.9462 C   0  0  0  0  0  0  0  0  0  0  0  0
   -0.5212   -0.3639    0.3950 C   0  0  0  0  0  0  0  0  0  0  0  0
    2.0543    0.5735    1.5465 C   0  0  1  0  0  0  0  0  0  0  0  0
   -1.5477   -1.0942   -0.2078 C   0  0  0  0  0  0  0  0  0  0  0  0
    0.2906   -2.3941   -0.1788 C   0  0  0  0  0  0  0  0  0  0  0  0
   -0.7916    0.9450    0.8409 C   0  0  0  0  0  0  0  0  0  0  0  0
   -2.8363   -0.5787   -0.3876 C   0  0  0  0  0  0  0  0  0  0  0  0
   -2.0759    1.4737    0.6678 C   0  0  0  0  0  0  0  0  0  0  0  0
    1.1080    0.7278    2.7255 C   0  0  0  0  0  0  0  0  0  0  0  0
   -3.0811    0.7218    0.0626 C   0  0  0  0  0  0  0  0  0  0  0  0
    2.7091   -0.9462    0.1458 H   0  0  0  0  0  0  0  0  0  0  0  0
    2.2467   -1.5882    1.7075 H   0  0  0  0  0  0  0  0  0  0  0  0
    1.8156    1.3324    0.7922 H   0  0  0  0  0  0  0  0  0  0  0  0
    0.8646   -3.2906   -0.3681 H   0  0  0  0  0  0  0  0  0  0  0  0
   -1.5419   -3.0639   -1.0000 H   0  0  0  0  0  0  0  0  0  0  0  0
   -0.0235    1.5447    1.3203 H   0  0  0  0  0  0  0  0  0  0  0  0
   -3.6113   -1.1739   -0.8604 H   0  0  0  0  0  0  0  0  0  0  0  0
   -2.2756    2.4845    1.0165 H   0  0  0  0  0  0  0  0  0  0  0  0
    3.4761    1.7943    2.3678 H   0  0  0  0  0  0  0  0  0  0  0  0
    4.0784    0.7245    1.2960 H   0  0  0  0  0  0  0  0  0  0  0  0
    0.0535    2.0980    3.6265 H   0  0  0  0  0  0  0  0  0  0  0  0
  1 16  1  0  0  0  0
  2 15  1  0  0  0  0
  2 27  1  0  0  0  0
  3 15  2  0  0  0  0
  4 10  1  0  0  0  0
  4 11  1  0  0  0  0
  4 21  1  0  0  0  0
  5  9  1  0  0  0  0
  5 25  1  0  0  0  0
  5 26  1  0  0  0  0
  6  7  1  0  0  0  0
  6  8  1  0  0  0  0
  6 11  2  0  0  0  0
  7  9  1  0  0  0  0
  7 17  1  0  0  0  0
  7 18  1  0  0  0  0
  8 10  2  0  0  0  0
  8 12  1  0  0  0  0
  9 15  1  0  0  0  0
  9 19  1  6  0  0  0
 10 13  1  0  0  0  0
 11 20  1  0  0  0  0
 12 14  2  0  0  0  0
 12 22  1  0  0  0  0
 13 16  2  0  0  0  0
 13 23  1  0  0  0  0
 14 16  1  0  0  0  0
 14 24  1  0  0  0  0
M  END
>  <PUBCHEM_COMPOUND_CID>
10062693

>  <PUBCHEM_CONFORMER_RMSD>
0.6

>  <PUBCHEM_CONFORMER_DIVERSEORDER>
1
17
14
15
6
5
11
16
19
12
9
13
18
7
3
2
4
8
10

>  <PUBCHEM_MMFF94_PARTIAL_CHARGES>
23
1 -0.18
10 -0.15
11 -0.3
12 -0.15
13 -0.15
14 -0.15
15 0.66
16 0.18
2 -0.65
20 0.15
21 0.27
22 0.15
23 0.15
24 0.15
25 0.36
26 0.36
27 0.5
3 -0.57
4 0.03
5 -0.99
6 -0.18
7 0.18
9 0.33

>  <PUBCHEM_EFFECTIVE_ROTOR_COUNT>
3

>  <PUBCHEM_PHARMACOPHORE_FEATURES>
9
1 2 acceptor
1 3 acceptor
1 4 cation
1 4 donor
1 5 cation
1 5 donor
3 2 3 15 anion
5 4 6 8 10 11 rings
6 8 10 12 13 14 16 rings

>  <PUBCHEM_HEAVY_ATOM_COUNT>
16

>  <PUBCHEM_ATOM_DEF_STEREO_COUNT>
1

>  <PUBCHEM_ATOM_UDEF_STEREO_COUNT>
0

>  <PUBCHEM_BOND_DEF_STEREO_COUNT>
0

>  <PUBCHEM_BOND_UDEF_STEREO_COUNT>
0

>  <PUBCHEM_ISOTOPIC_ATOM_COUNT>
0

>  <PUBCHEM_COMPONENT_COUNT>
1

>  <PUBCHEM_CACTVS_TAUTO_COUNT>
1

>  <PUBCHEM_CONFORMER_ID>
00998B6500000001

>  <PUBCHEM_MMFF94_ENERGY>
20.8722

>  <PUBCHEM_FEATURE_SELFOVERLAP>
45.82

>  <PUBCHEM_SHAPE_FINGERPRINT>
11640471 11 17897169241496700116
13380535 76 18410294670933973003
13583140 156 17168139023420613315
15775835 57 18334019405910167348
16945 1 18337673005782027651
17134986 127 18410578374618668357
18186145 218 18272381870667978737
20645476 183 18408598171668519395
21524375 3 18335423447925303731
22094290 62 18335419058584713298
231179 274 17968653805271512917
23175994 123 15647323105745291258
23402539 116 18059846273108328044
23419403 2 16323922072468417122
23557571 272 17560515230569604782
23559900 14 17988921185422784794
2748010 2 17333914852425149699
3060560 45 18339643317565256630
474 4 18261115132279299961
537710 114 18271523105348421913
58051976 378 18270678667464673221
7364860 26 18127694816149601031
7832392 63 18408881875901580972
9981440 41 17542499887853393528

>  <PUBCHEM_SHAPE_MULTIPOLES>
309.44
6.42
2.24
0.96
1.9
0.59
-0.15
-3.38
-0.1
-0.14
-0.26
-0.32
-0.17
-0.59

>  <PUBCHEM_SHAPE_SELFOVERLAP>
658.007

>  <PUBCHEM_SHAPE_VOLUME>
174.4

>  <PUBCHEM_COORDINATE_TYPE>
2
5
10

$$$$
