11737641
 OpenBabel12092211553D

 27 28  0  0  1  0  0  0  0  0999 V2000
   -4.4920   -0.5490   -0.8566 Br  0  0  0  0  0  0  0  0  0  0  0  0
    5.1607   -0.8730   -0.5498 O   0  0  0  0  0  0  0  0  0  0  0  0
    4.5460   -0.3279    1.5635 O   0  0  0  0  0  0  0  0  0  0  0  0
   -1.4911   -1.8961   -0.2929 N   0  0  0  0  0  0  0  0  0  0  0  0
    2.8027   -1.5899   -1.2188 N   0  0  0  0  0  0  0  0  0  0  0  0
    0.4131   -1.0857    0.5097 C   0  0  0  0  0  0  0  0  0  0  0  0
    1.8142   -0.9904    0.9673 C   0  0  0  0  0  0  0  0  0  0  0  0
   -0.5465   -0.0352    0.4958 C   0  0  0  0  0  0  0  0  0  0  0  0
    2.8208   -0.5992   -0.1394 C   0  0  1  0  0  0  0  0  0  0  0  0
   -1.7324   -0.5700   -0.0122 C   0  0  0  0  0  0  0  0  0  0  0  0
   -0.1972   -2.2169    0.0190 C   0  0  0  0  0  0  0  0  0  0  0  0
   -0.5200    1.3237    0.8677 C   0  0  0  0  0  0  0  0  0  0  0  0
   -2.8977    0.1890   -0.1673 C   0  0  0  0  0  0  0  0  0  0  0  0
   -1.6782    2.0952    0.7181 C   0  0  0  0  0  0  0  0  0  0  0  0
    4.2401   -0.5694    0.4026 C   0  0  0  0  0  0  0  0  0  0  0  0
   -2.8476    1.5346    0.2083 C   0  0  0  0  0  0  0  0  0  0  0  0
    2.1153   -1.9556    1.3976 H   0  0  0  0  0  0  0  0  0  0  0  0
    1.8749   -0.2669    1.7921 H   0  0  0  0  0  0  0  0  0  0  0  0
    2.5763    0.3828   -0.5609 H   0  0  0  0  0  0  0  0  0  0  0  0
    0.1713   -3.2212   -0.1372 H   0  0  0  0  0  0  0  0  0  0  0  0
   -2.1714   -2.5387   -0.6744 H   0  0  0  0  0  0  0  0  0  0  0  0
    0.3797    1.7776    1.2726 H   0  0  0  0  0  0  0  0  0  0  0  0
   -1.6638    3.1434    1.0046 H   0  0  0  0  0  0  0  0  0  0  0  0
   -3.7274    2.1665    0.1069 H   0  0  0  0  0  0  0  0  0  0  0  0
    3.4047   -1.2765   -1.9797 H   0  0  0  0  0  0  0  0  0  0  0  0
    1.8627   -1.6512   -1.6085 H   0  0  0  0  0  0  0  0  0  0  0  0
    6.0741   -0.8591   -0.1925 H   0  0  0  0  0  0  0  0  0  0  0  0
  1 13  1  0  0  0  0
  2 15  1  0  0  0  0
  2 27  1  0  0  0  0
  3 15  2  0  0  0  0
  4 10  1  0  0  0  0
  4 11  1  0  0  0  0
  4 21  1  0  0  0  0
  5  9  1  0  0  0  0
  5 25  1  0  0  0  0
  5 26  1  0  0  0  0
  6  7  1  0  0  0  0
  6  8  1  0  0  0  0
  6 11  2  0  0  0  0
  7  9  1  0  0  0  0
  7 17  1  0  0  0  0
  7 18  1  0  0  0  0
  8 10  2  0  0  0  0
  8 12  1  0  0  0  0
  9 15  1  0  0  0  0
  9 19  1  6  0  0  0
 10 13  1  0  0  0  0
 11 20  1  0  0  0  0
 12 14  2  0  0  0  0
 12 22  1  0  0  0  0
 13 16  2  0  0  0  0
 14 16  1  0  0  0  0
 14 23  1  0  0  0  0
 16 24  1  0  0  0  0
M  END
>  <PUBCHEM_COMPOUND_CID>
11737641

>  <PUBCHEM_CONFORMER_RMSD>
0.6

>  <PUBCHEM_CONFORMER_DIVERSEORDER>
1
16
19
14
7
13
11
15
18
6
5
12
8
3
17
4
9
2
10

>  <PUBCHEM_MMFF94_PARTIAL_CHARGES>
23
1 -0.11
10 -0.15
11 -0.3
12 -0.15
13 0.11
14 -0.15
15 0.66
16 -0.15
2 -0.65
20 0.15
21 0.27
22 0.15
23 0.15
24 0.15
25 0.36
26 0.36
27 0.5
3 -0.57
4 0.03
5 -0.99
6 -0.18
7 0.18
9 0.33

>  <PUBCHEM_EFFECTIVE_ROTOR_COUNT>
3

>  <PUBCHEM_PHARMACOPHORE_FEATURES>
10
1 1 hydrophobe
1 2 acceptor
1 3 acceptor
1 4 cation
1 4 donor
1 5 cation
1 5 donor
3 2 3 15 anion
5 4 6 8 10 11 rings
6 8 10 12 13 14 16 rings

>  <PUBCHEM_HEAVY_ATOM_COUNT>
16

>  <PUBCHEM_ATOM_DEF_STEREO_COUNT>
1

>  <PUBCHEM_ATOM_UDEF_STEREO_COUNT>
0

>  <PUBCHEM_BOND_DEF_STEREO_COUNT>
0

>  <PUBCHEM_BOND_UDEF_STEREO_COUNT>
0

>  <PUBCHEM_ISOTOPIC_ATOM_COUNT>
0

>  <PUBCHEM_COMPONENT_COUNT>
1

>  <PUBCHEM_CACTVS_TAUTO_COUNT>
1

>  <PUBCHEM_CONFORMER_ID>
00B31A2900000001

>  <PUBCHEM_MMFF94_ENERGY>
21.2917

>  <PUBCHEM_FEATURE_SELFOVERLAP>
50.894

>  <PUBCHEM_SHAPE_FINGERPRINT>
10062212 137 18338790109833023619
11640471 11 17823430464157310204
13538477 17 18334570282594605042
14115302 16 18335699481004429023
14993402 34 18187928339683679406
15775835 57 18260559904629766484
16945 1 18340778082358437947
17802600 8 18261385633398388900
17862501 102 18338228272007223554
18186145 218 18408608041313143461
192875 21 18410006637383965324
20645476 183 18187076252595506835
21524375 3 18333733489768519475
23402539 116 18201710734874874452
23419403 2 16536722669594432170
23557571 272 17489867120170046770
23559900 14 18272087249550677728
2748010 2 16032660553244265307
353137 74 18410576201586879465
474 4 17677053563657309804
5262128 65 17702128961242040124
537710 114 18410572907668599745
53812653 8 18412546496559348171
7364860 26 17839465487959327439
7832392 63 17907866102070327712
9981440 41 17612874108177617872

>  <PUBCHEM_SHAPE_MULTIPOLES>
313.51
6.46
2.11
1.04
0.23
0.15
0.25
0.21
1.49
0.41
-0.22
-0.24
0.17
-0.9

>  <PUBCHEM_SHAPE_SELFOVERLAP>
660.914

>  <PUBCHEM_SHAPE_VOLUME>
180.8

>  <PUBCHEM_COORDINATE_TYPE>
2
5
10

$$$$
11737641
 OpenBabel12092211553D

 27 28  0  0  1  0  0  0  0  0999 V2000
   -4.4920   -0.5490   -0.8566 Br  0  0  0  0  0  0  0  0  0  0  0  0
    1.1381   -2.8517    4.0616 O   0  0  0  0  0  0  0  0  0  0  0  0
    1.6908   -3.6752    2.0227 O   0  0  0  0  0  0  0  0  0  0  0  0
   -1.4911   -1.8961   -0.2929 N   0  0  0  0  0  0  0  0  0  0  0  0
    3.4321   -1.1799    2.8280 N   0  0  0  0  0  0  0  0  0  0  0  0
    0.4131   -1.0857    0.5097 C   0  0  0  0  0  0  0  0  0  0  0  0
    1.8142   -0.9904    0.9673 C   0  0  0  0  0  0  0  0  0  0  0  0
   -0.5465   -0.0352    0.4958 C   0  0  0  0  0  0  0  0  0  0  0  0
    2.0166   -1.2994    2.4689 C   0  0  1  0  0  0  0  0  0  0  0  0
   -1.7324   -0.5700   -0.0122 C   0  0  0  0  0  0  0  0  0  0  0  0
   -0.1972   -2.2169    0.0190 C   0  0  0  0  0  0  0  0  0  0  0  0
   -0.5200    1.3237    0.8677 C   0  0  0  0  0  0  0  0  0  0  0  0
   -2.8977    0.1890   -0.1673 C   0  0  0  0  0  0  0  0  0  0  0  0
   -1.6782    2.0952    0.7181 C   0  0  0  0  0  0  0  0  0  0  0  0
    1.6029   -2.7256    2.7909 C   0  0  0  0  0  0  0  0  0  0  0  0
   -2.8476    1.5346    0.2083 C   0  0  0  0  0  0  0  0  0  0  0  0
    2.1897    0.0208    0.7580 H   0  0  0  0  0  0  0  0  0  0  0  0
    2.4361   -1.6675    0.3654 H   0  0  0  0  0  0  0  0  0  0  0  0
    1.4375   -0.6078    3.0918 H   0  0  0  0  0  0  0  0  0  0  0  0
    0.1713   -3.2212   -0.1372 H   0  0  0  0  0  0  0  0  0  0  0  0
   -2.1714   -2.5387   -0.6744 H   0  0  0  0  0  0  0  0  0  0  0  0
    0.3797    1.7776    1.2726 H   0  0  0  0  0  0  0  0  0  0  0  0
   -1.6638    3.1434    1.0046 H   0  0  0  0  0  0  0  0  0  0  0  0
   -3.7274    2.1665    0.1069 H   0  0  0  0  0  0  0  0  0  0  0  0
    3.5400   -1.3004    3.8347 H   0  0  0  0  0  0  0  0  0  0  0  0
    3.7575   -0.2367    2.6193 H   0  0  0  0  0  0  0  0  0  0  0  0
    0.8793   -3.7755    4.2660 H   0  0  0  0  0  0  0  0  0  0  0  0
  1 13  1  0  0  0  0
  2 15  1  0  0  0  0
  2 27  1  0  0  0  0
  3 15  2  0  0  0  0
  4 10  1  0  0  0  0
  4 11  1  0  0  0  0
  4 21  1  0  0  0  0
  5  9  1  0  0  0  0
  5 25  1  0  0  0  0
  5 26  1  0  0  0  0
  6  7  1  0  0  0  0
  6  8  1  0  0  0  0
  6 11  2  0  0  0  0
  7  9  1  0  0  0  0
  7 17  1  0  0  0  0
  7 18  1  0  0  0  0
  8 10  2  0  0  0  0
  8 12  1  0  0  0  0
  9 15  1  0  0  0  0
  9 19  1  1  0  0  0
 10 13  1  0  0  0  0
 11 20  1  0  0  0  0
 12 14  2  0  0  0  0
 12 22  1  0  0  0  0
 13 16  2  0  0  0  0
 14 16  1  0  0  0  0
 14 23  1  0  0  0  0
 16 24  1  0  0  0  0
M  END
>  <PUBCHEM_COMPOUND_CID>
11737641

>  <PUBCHEM_CONFORMER_RMSD>
0.6

>  <PUBCHEM_CONFORMER_DIVERSEORDER>
1
16
19
14
7
13
11
15
18
6
5
12
8
3
17
4
9
2
10

>  <PUBCHEM_MMFF94_PARTIAL_CHARGES>
23
1 -0.11
10 -0.15
11 -0.3
12 -0.15
13 0.11
14 -0.15
15 0.66
16 -0.15
2 -0.65
20 0.15
21 0.27
22 0.15
23 0.15
24 0.15
25 0.36
26 0.36
27 0.5
3 -0.57
4 0.03
5 -0.99
6 -0.18
7 0.18
9 0.33

>  <PUBCHEM_EFFECTIVE_ROTOR_COUNT>
3

>  <PUBCHEM_PHARMACOPHORE_FEATURES>
10
1 1 hydrophobe
1 2 acceptor
1 3 acceptor
1 4 cation
1 4 donor
1 5 cation
1 5 donor
3 2 3 15 anion
5 4 6 8 10 11 rings
6 8 10 12 13 14 16 rings

>  <PUBCHEM_HEAVY_ATOM_COUNT>
16

>  <PUBCHEM_ATOM_DEF_STEREO_COUNT>
1

>  <PUBCHEM_ATOM_UDEF_STEREO_COUNT>
0

>  <PUBCHEM_BOND_DEF_STEREO_COUNT>
0

>  <PUBCHEM_BOND_UDEF_STEREO_COUNT>
0

>  <PUBCHEM_ISOTOPIC_ATOM_COUNT>
0

>  <PUBCHEM_COMPONENT_COUNT>
1

>  <PUBCHEM_CACTVS_TAUTO_COUNT>
1

>  <PUBCHEM_CONFORMER_ID>
00B31A2900000001

>  <PUBCHEM_MMFF94_ENERGY>
21.2917

>  <PUBCHEM_FEATURE_SELFOVERLAP>
50.894

>  <PUBCHEM_SHAPE_FINGERPRINT>
10062212 137 18338790109833023619
11640471 11 17823430464157310204
13538477 17 18334570282594605042
14115302 16 18335699481004429023
14993402 34 18187928339683679406
15775835 57 18260559904629766484
16945 1 18340778082358437947
17802600 8 18261385633398388900
17862501 102 18338228272007223554
18186145 218 18408608041313143461
192875 21 18410006637383965324
20645476 183 18187076252595506835
21524375 3 18333733489768519475
23402539 116 18201710734874874452
23419403 2 16536722669594432170
23557571 272 17489867120170046770
23559900 14 18272087249550677728
2748010 2 16032660553244265307
353137 74 18410576201586879465
474 4 17677053563657309804
5262128 65 17702128961242040124
537710 114 18410572907668599745
53812653 8 18412546496559348171
7364860 26 17839465487959327439
7832392 63 17907866102070327712
9981440 41 17612874108177617872

>  <PUBCHEM_SHAPE_MULTIPOLES>
313.51
6.46
2.11
1.04
0.23
0.15
0.25
0.21
1.49
0.41
-0.22
-0.24
0.17
-0.9

>  <PUBCHEM_SHAPE_SELFOVERLAP>
660.914

>  <PUBCHEM_SHAPE_VOLUME>
180.8

>  <PUBCHEM_COORDINATE_TYPE>
2
5
10

$$$$
11737641
 OpenBabel12092211553D

 27 28  0  0  1  0  0  0  0  0999 V2000
   -4.4920   -0.5490   -0.8566 Br  0  0  0  0  0  0  0  0  0  0  0  0
    3.8276   -1.9645    3.8817 O   0  0  0  0  0  0  0  0  0  0  0  0
    4.2544   -0.3345    2.3646 O   0  0  0  0  0  0  0  0  0  0  0  0
   -1.4911   -1.8961   -0.2929 N   0  0  0  0  0  0  0  0  0  0  0  0
    1.2463   -0.3623    3.2908 N   0  0  0  0  0  0  0  0  0  0  0  0
    0.4131   -1.0857    0.5097 C   0  0  0  0  0  0  0  0  0  0  0  0
    1.8142   -0.9904    0.9673 C   0  0  0  0  0  0  0  0  0  0  0  0
   -0.5465   -0.0352    0.4958 C   0  0  0  0  0  0  0  0  0  0  0  0
    2.0166   -1.2994    2.4689 C   0  0  1  0  0  0  0  0  0  0  0  0
   -1.7324   -0.5700   -0.0122 C   0  0  0  0  0  0  0  0  0  0  0  0
   -0.1972   -2.2169    0.0190 C   0  0  0  0  0  0  0  0  0  0  0  0
   -0.5200    1.3237    0.8677 C   0  0  0  0  0  0  0  0  0  0  0  0
   -2.8977    0.1890   -0.1673 C   0  0  0  0  0  0  0  0  0  0  0  0
   -1.6782    2.0952    0.7181 C   0  0  0  0  0  0  0  0  0  0  0  0
    3.4738   -1.1335    2.8663 C   0  0  0  0  0  0  0  0  0  0  0  0
   -2.8476    1.5346    0.2083 C   0  0  0  0  0  0  0  0  0  0  0  0
    2.1897    0.0208    0.7580 H   0  0  0  0  0  0  0  0  0  0  0  0
    2.4361   -1.6675    0.3654 H   0  0  0  0  0  0  0  0  0  0  0  0
    1.6935   -2.3199    2.7050 H   0  0  0  0  0  0  0  0  0  0  0  0
    0.1713   -3.2212   -0.1372 H   0  0  0  0  0  0  0  0  0  0  0  0
   -2.1714   -2.5387   -0.6744 H   0  0  0  0  0  0  0  0  0  0  0  0
    0.3797    1.7776    1.2726 H   0  0  0  0  0  0  0  0  0  0  0  0
   -1.6638    3.1434    1.0046 H   0  0  0  0  0  0  0  0  0  0  0  0
   -3.7274    2.1665    0.1069 H   0  0  0  0  0  0  0  0  0  0  0  0
    1.3189   -0.6298    4.2720 H   0  0  0  0  0  0  0  0  0  0  0  0
    0.2581   -0.4321    3.0507 H   0  0  0  0  0  0  0  0  0  0  0  0
    4.7671   -1.8480    4.1386 H   0  0  0  0  0  0  0  0  0  0  0  0
  1 13  1  0  0  0  0
  2 15  1  0  0  0  0
  2 27  1  0  0  0  0
  3 15  2  0  0  0  0
  4 10  1  0  0  0  0
  4 11  1  0  0  0  0
  4 21  1  0  0  0  0
  5  9  1  0  0  0  0
  5 25  1  0  0  0  0
  5 26  1  0  0  0  0
  6  7  1  0  0  0  0
  6  8  1  0  0  0  0
  6 11  2  0  0  0  0
  7  9  1  0  0  0  0
  7 17  1  0  0  0  0
  7 18  1  0  0  0  0
  8 10  2  0  0  0  0
  8 12  1  0  0  0  0
  9 15  1  0  0  0  0
  9 19  1  1  0  0  0
 10 13  1  0  0  0  0
 11 20  1  0  0  0  0
 12 14  2  0  0  0  0
 12 22  1  0  0  0  0
 13 16  2  0  0  0  0
 14 16  1  0  0  0  0
 14 23  1  0  0  0  0
 16 24  1  0  0  0  0
M  END
>  <PUBCHEM_COMPOUND_CID>
11737641

>  <PUBCHEM_CONFORMER_RMSD>
0.6

>  <PUBCHEM_CONFORMER_DIVERSEORDER>
1
16
19
14
7
13
11
15
18
6
5
12
8
3
17
4
9
2
10

>  <PUBCHEM_MMFF94_PARTIAL_CHARGES>
23
1 -0.11
10 -0.15
11 -0.3
12 -0.15
13 0.11
14 -0.15
15 0.66
16 -0.15
2 -0.65
20 0.15
21 0.27
22 0.15
23 0.15
24 0.15
25 0.36
26 0.36
27 0.5
3 -0.57
4 0.03
5 -0.99
6 -0.18
7 0.18
9 0.33

>  <PUBCHEM_EFFECTIVE_ROTOR_COUNT>
3

>  <PUBCHEM_PHARMACOPHORE_FEATURES>
10
1 1 hydrophobe
1 2 acceptor
1 3 acceptor
1 4 cation
1 4 donor
1 5 cation
1 5 donor
3 2 3 15 anion
5 4 6 8 10 11 rings
6 8 10 12 13 14 16 rings

>  <PUBCHEM_HEAVY_ATOM_COUNT>
16

>  <PUBCHEM_ATOM_DEF_STEREO_COUNT>
1

>  <PUBCHEM_ATOM_UDEF_STEREO_COUNT>
0

>  <PUBCHEM_BOND_DEF_STEREO_COUNT>
0

>  <PUBCHEM_BOND_UDEF_STEREO_COUNT>
0

>  <PUBCHEM_ISOTOPIC_ATOM_COUNT>
0

>  <PUBCHEM_COMPONENT_COUNT>
1

>  <PUBCHEM_CACTVS_TAUTO_COUNT>
1

>  <PUBCHEM_CONFORMER_ID>
00B31A2900000001

>  <PUBCHEM_MMFF94_ENERGY>
21.2917

>  <PUBCHEM_FEATURE_SELFOVERLAP>
50.894

>  <PUBCHEM_SHAPE_FINGERPRINT>
10062212 137 18338790109833023619
11640471 11 17823430464157310204
13538477 17 18334570282594605042
14115302 16 18335699481004429023
14993402 34 18187928339683679406
15775835 57 18260559904629766484
16945 1 18340778082358437947
17802600 8 18261385633398388900
17862501 102 18338228272007223554
18186145 218 18408608041313143461
192875 21 18410006637383965324
20645476 183 18187076252595506835
21524375 3 18333733489768519475
23402539 116 18201710734874874452
23419403 2 16536722669594432170
23557571 272 17489867120170046770
23559900 14 18272087249550677728
2748010 2 16032660553244265307
353137 74 18410576201586879465
474 4 17677053563657309804
5262128 65 17702128961242040124
537710 114 18410572907668599745
53812653 8 18412546496559348171
7364860 26 17839465487959327439
7832392 63 17907866102070327712
9981440 41 17612874108177617872

>  <PUBCHEM_SHAPE_MULTIPOLES>
313.51
6.46
2.11
1.04
0.23
0.15
0.25
0.21
1.49
0.41
-0.22
-0.24
0.17
-0.9

>  <PUBCHEM_SHAPE_SELFOVERLAP>
660.914

>  <PUBCHEM_SHAPE_VOLUME>
180.8

>  <PUBCHEM_COORDINATE_TYPE>
2
5
10

$$$$
11737641
 OpenBabel12092211553D

 27 28  0  0  1  0  0  0  0  0999 V2000
   -4.4920   -0.5490   -0.8566 Br  0  0  0  0  0  0  0  0  0  0  0  0
    4.2950   -1.9586    2.1653 O   0  0  0  0  0  0  0  0  0  0  0  0
    3.8857   -0.3713    3.7317 O   0  0  0  0  0  0  0  0  0  0  0  0
   -1.4911   -1.8961   -0.2929 N   0  0  0  0  0  0  0  0  0  0  0  0
    1.2463   -0.3623    3.2908 N   0  0  0  0  0  0  0  0  0  0  0  0
    0.4131   -1.0857    0.5097 C   0  0  0  0  0  0  0  0  0  0  0  0
    1.8142   -0.9904    0.9673 C   0  0  0  0  0  0  0  0  0  0  0  0
   -0.5465   -0.0352    0.4958 C   0  0  0  0  0  0  0  0  0  0  0  0
    2.0166   -1.2994    2.4689 C   0  0  1  0  0  0  0  0  0  0  0  0
   -1.7324   -0.5700   -0.0122 C   0  0  0  0  0  0  0  0  0  0  0  0
   -0.1972   -2.2169    0.0190 C   0  0  0  0  0  0  0  0  0  0  0  0
   -0.5200    1.3237    0.8677 C   0  0  0  0  0  0  0  0  0  0  0  0
   -2.8977    0.1890   -0.1673 C   0  0  0  0  0  0  0  0  0  0  0  0
   -1.6782    2.0952    0.7181 C   0  0  0  0  0  0  0  0  0  0  0  0
    3.4738   -1.1335    2.8663 C   0  0  0  0  0  0  0  0  0  0  0  0
   -2.8476    1.5346    0.2083 C   0  0  0  0  0  0  0  0  0  0  0  0
    2.1897    0.0208    0.7580 H   0  0  0  0  0  0  0  0  0  0  0  0
    2.4361   -1.6675    0.3654 H   0  0  0  0  0  0  0  0  0  0  0  0
    1.6935   -2.3199    2.7050 H   0  0  0  0  0  0  0  0  0  0  0  0
    0.1713   -3.2212   -0.1372 H   0  0  0  0  0  0  0  0  0  0  0  0
   -2.1714   -2.5387   -0.6744 H   0  0  0  0  0  0  0  0  0  0  0  0
    0.3797    1.7776    1.2726 H   0  0  0  0  0  0  0  0  0  0  0  0
   -1.6638    3.1434    1.0046 H   0  0  0  0  0  0  0  0  0  0  0  0
   -3.7274    2.1665    0.1069 H   0  0  0  0  0  0  0  0  0  0  0  0
    1.3189   -0.6298    4.2720 H   0  0  0  0  0  0  0  0  0  0  0  0
    0.2581   -0.4321    3.0507 H   0  0  0  0  0  0  0  0  0  0  0  0
    5.2333   -1.8522    2.4311 H   0  0  0  0  0  0  0  0  0  0  0  0
  1 13  1  0  0  0  0
  2 15  1  0  0  0  0
  2 27  1  0  0  0  0
  3 15  2  0  0  0  0
  4 10  1  0  0  0  0
  4 11  1  0  0  0  0
  4 21  1  0  0  0  0
  5  9  1  0  0  0  0
  5 25  1  0  0  0  0
  5 26  1  0  0  0  0
  6  7  1  0  0  0  0
  6  8  1  0  0  0  0
  6 11  2  0  0  0  0
  7  9  1  0  0  0  0
  7 17  1  0  0  0  0
  7 18  1  0  0  0  0
  8 10  2  0  0  0  0
  8 12  1  0  0  0  0
  9 15  1  0  0  0  0
  9 19  1  1  0  0  0
 10 13  1  0  0  0  0
 11 20  1  0  0  0  0
 12 14  2  0  0  0  0
 12 22  1  0  0  0  0
 13 16  2  0  0  0  0
 14 16  1  0  0  0  0
 14 23  1  0  0  0  0
 16 24  1  0  0  0  0
M  END
>  <PUBCHEM_COMPOUND_CID>
11737641

>  <PUBCHEM_CONFORMER_RMSD>
0.6

>  <PUBCHEM_CONFORMER_DIVERSEORDER>
1
16
19
14
7
13
11
15
18
6
5
12
8
3
17
4
9
2
10

>  <PUBCHEM_MMFF94_PARTIAL_CHARGES>
23
1 -0.11
10 -0.15
11 -0.3
12 -0.15
13 0.11
14 -0.15
15 0.66
16 -0.15
2 -0.65
20 0.15
21 0.27
22 0.15
23 0.15
24 0.15
25 0.36
26 0.36
27 0.5
3 -0.57
4 0.03
5 -0.99
6 -0.18
7 0.18
9 0.33

>  <PUBCHEM_EFFECTIVE_ROTOR_COUNT>
3

>  <PUBCHEM_PHARMACOPHORE_FEATURES>
10
1 1 hydrophobe
1 2 acceptor
1 3 acceptor
1 4 cation
1 4 donor
1 5 cation
1 5 donor
3 2 3 15 anion
5 4 6 8 10 11 rings
6 8 10 12 13 14 16 rings

>  <PUBCHEM_HEAVY_ATOM_COUNT>
16

>  <PUBCHEM_ATOM_DEF_STEREO_COUNT>
1

>  <PUBCHEM_ATOM_UDEF_STEREO_COUNT>
0

>  <PUBCHEM_BOND_DEF_STEREO_COUNT>
0

>  <PUBCHEM_BOND_UDEF_STEREO_COUNT>
0

>  <PUBCHEM_ISOTOPIC_ATOM_COUNT>
0

>  <PUBCHEM_COMPONENT_COUNT>
1

>  <PUBCHEM_CACTVS_TAUTO_COUNT>
1

>  <PUBCHEM_CONFORMER_ID>
00B31A2900000001

>  <PUBCHEM_MMFF94_ENERGY>
21.2917

>  <PUBCHEM_FEATURE_SELFOVERLAP>
50.894

>  <PUBCHEM_SHAPE_FINGERPRINT>
10062212 137 18338790109833023619
11640471 11 17823430464157310204
13538477 17 18334570282594605042
14115302 16 18335699481004429023
14993402 34 18187928339683679406
15775835 57 18260559904629766484
16945 1 18340778082358437947
17802600 8 18261385633398388900
17862501 102 18338228272007223554
18186145 218 18408608041313143461
192875 21 18410006637383965324
20645476 183 18187076252595506835
21524375 3 18333733489768519475
23402539 116 18201710734874874452
23419403 2 16536722669594432170
23557571 272 17489867120170046770
23559900 14 18272087249550677728
2748010 2 16032660553244265307
353137 74 18410576201586879465
474 4 17677053563657309804
5262128 65 17702128961242040124
537710 114 18410572907668599745
53812653 8 18412546496559348171
7364860 26 17839465487959327439
7832392 63 17907866102070327712
9981440 41 17612874108177617872

>  <PUBCHEM_SHAPE_MULTIPOLES>
313.51
6.46
2.11
1.04
0.23
0.15
0.25
0.21
1.49
0.41
-0.22
-0.24
0.17
-0.9

>  <PUBCHEM_SHAPE_SELFOVERLAP>
660.914

>  <PUBCHEM_SHAPE_VOLUME>
180.8

>  <PUBCHEM_COORDINATE_TYPE>
2
5
10

$$$$
11737641
 OpenBabel12092211553D

 27 28  0  0  1  0  0  0  0  0999 V2000
   -4.4920   -0.5490   -0.8566 Br  0  0  0  0  0  0  0  0  0  0  0  0
    2.4881   -0.9817   -2.4541 O   0  0  0  0  0  0  0  0  0  0  0  0
    2.9531    0.8538   -1.2068 O   0  0  0  0  0  0  0  0  0  0  0  0
   -1.4911   -1.8961   -0.2929 N   0  0  0  0  0  0  0  0  0  0  0  0
    4.2179   -1.2055    0.4273 N   0  0  0  0  0  0  0  0  0  0  0  0
    0.4131   -1.0857    0.5097 C   0  0  0  0  0  0  0  0  0  0  0  0
    1.8142   -0.9904    0.9673 C   0  0  0  0  0  0  0  0  0  0  0  0
   -0.5465   -0.0352    0.4958 C   0  0  0  0  0  0  0  0  0  0  0  0
    2.8633   -1.3270   -0.1178 C   0  0  1  0  0  0  0  0  0  0  0  0
   -1.7324   -0.5700   -0.0122 C   0  0  0  0  0  0  0  0  0  0  0  0
   -0.1972   -2.2169    0.0190 C   0  0  0  0  0  0  0  0  0  0  0  0
   -0.5200    1.3237    0.8677 C   0  0  0  0  0  0  0  0  0  0  0  0
   -2.8977    0.1890   -0.1673 C   0  0  0  0  0  0  0  0  0  0  0  0
   -1.6782    2.0952    0.7181 C   0  0  0  0  0  0  0  0  0  0  0  0
    2.7719   -0.3550   -1.2822 C   0  0  0  0  0  0  0  0  0  0  0  0
   -2.8476    1.5346    0.2083 C   0  0  0  0  0  0  0  0  0  0  0  0
    1.9569   -1.6657    1.8222 H   0  0  0  0  0  0  0  0  0  0  0  0
    1.9979    0.0211    1.3553 H   0  0  0  0  0  0  0  0  0  0  0  0
    2.7259   -2.3486   -0.4908 H   0  0  0  0  0  0  0  0  0  0  0  0
    0.1713   -3.2212   -0.1372 H   0  0  0  0  0  0  0  0  0  0  0  0
   -2.1714   -2.5387   -0.6744 H   0  0  0  0  0  0  0  0  0  0  0  0
    0.3797    1.7776    1.2726 H   0  0  0  0  0  0  0  0  0  0  0  0
   -1.6638    3.1434    1.0046 H   0  0  0  0  0  0  0  0  0  0  0  0
   -3.7274    2.1665    0.1069 H   0  0  0  0  0  0  0  0  0  0  0  0
    4.8951   -1.5130   -0.2701 H   0  0  0  0  0  0  0  0  0  0  0  0
    4.3229   -1.8362    1.2212 H   0  0  0  0  0  0  0  0  0  0  0  0
    2.4375   -0.3503   -3.2031 H   0  0  0  0  0  0  0  0  0  0  0  0
  1 13  1  0  0  0  0
  2 15  1  0  0  0  0
  2 27  1  0  0  0  0
  3 15  2  0  0  0  0
  4 10  1  0  0  0  0
  4 11  1  0  0  0  0
  4 21  1  0  0  0  0
  5  9  1  0  0  0  0
  5 25  1  0  0  0  0
  5 26  1  0  0  0  0
  6  7  1  0  0  0  0
  6  8  1  0  0  0  0
  6 11  2  0  0  0  0
  7  9  1  0  0  0  0
  7 17  1  0  0  0  0
  7 18  1  0  0  0  0
  8 10  2  0  0  0  0
  8 12  1  0  0  0  0
  9 15  1  0  0  0  0
  9 19  1  6  0  0  0
 10 13  1  0  0  0  0
 11 20  1  0  0  0  0
 12 14  2  0  0  0  0
 12 22  1  0  0  0  0
 13 16  2  0  0  0  0
 14 16  1  0  0  0  0
 14 23  1  0  0  0  0
 16 24  1  0  0  0  0
M  END
>  <PUBCHEM_COMPOUND_CID>
11737641

>  <PUBCHEM_CONFORMER_RMSD>
0.6

>  <PUBCHEM_CONFORMER_DIVERSEORDER>
1
16
19
14
7
13
11
15
18
6
5
12
8
3
17
4
9
2
10

>  <PUBCHEM_MMFF94_PARTIAL_CHARGES>
23
1 -0.11
10 -0.15
11 -0.3
12 -0.15
13 0.11
14 -0.15
15 0.66
16 -0.15
2 -0.65
20 0.15
21 0.27
22 0.15
23 0.15
24 0.15
25 0.36
26 0.36
27 0.5
3 -0.57
4 0.03
5 -0.99
6 -0.18
7 0.18
9 0.33

>  <PUBCHEM_EFFECTIVE_ROTOR_COUNT>
3

>  <PUBCHEM_PHARMACOPHORE_FEATURES>
10
1 1 hydrophobe
1 2 acceptor
1 3 acceptor
1 4 cation
1 4 donor
1 5 cation
1 5 donor
3 2 3 15 anion
5 4 6 8 10 11 rings
6 8 10 12 13 14 16 rings

>  <PUBCHEM_HEAVY_ATOM_COUNT>
16

>  <PUBCHEM_ATOM_DEF_STEREO_COUNT>
1

>  <PUBCHEM_ATOM_UDEF_STEREO_COUNT>
0

>  <PUBCHEM_BOND_DEF_STEREO_COUNT>
0

>  <PUBCHEM_BOND_UDEF_STEREO_COUNT>
0

>  <PUBCHEM_ISOTOPIC_ATOM_COUNT>
0

>  <PUBCHEM_COMPONENT_COUNT>
1

>  <PUBCHEM_CACTVS_TAUTO_COUNT>
1

>  <PUBCHEM_CONFORMER_ID>
00B31A2900000001

>  <PUBCHEM_MMFF94_ENERGY>
21.2917

>  <PUBCHEM_FEATURE_SELFOVERLAP>
50.894

>  <PUBCHEM_SHAPE_FINGERPRINT>
10062212 137 18338790109833023619
11640471 11 17823430464157310204
13538477 17 18334570282594605042
14115302 16 18335699481004429023
14993402 34 18187928339683679406
15775835 57 18260559904629766484
16945 1 18340778082358437947
17802600 8 18261385633398388900
17862501 102 18338228272007223554
18186145 218 18408608041313143461
192875 21 18410006637383965324
20645476 183 18187076252595506835
21524375 3 18333733489768519475
23402539 116 18201710734874874452
23419403 2 16536722669594432170
23557571 272 17489867120170046770
23559900 14 18272087249550677728
2748010 2 16032660553244265307
353137 74 18410576201586879465
474 4 17677053563657309804
5262128 65 17702128961242040124
537710 114 18410572907668599745
53812653 8 18412546496559348171
7364860 26 17839465487959327439
7832392 63 17907866102070327712
9981440 41 17612874108177617872

>  <PUBCHEM_SHAPE_MULTIPOLES>
313.51
6.46
2.11
1.04
0.23
0.15
0.25
0.21
1.49
0.41
-0.22
-0.24
0.17
-0.9

>  <PUBCHEM_SHAPE_SELFOVERLAP>
660.914

>  <PUBCHEM_SHAPE_VOLUME>
180.8

>  <PUBCHEM_COORDINATE_TYPE>
2
5
10

$$$$
11737641
 OpenBabel12092211553D

 27 28  0  0  1  0  0  0  0  0999 V2000
   -4.4920   -0.5490   -0.8566 Br  0  0  0  0  0  0  0  0  0  0  0  0
    4.3838    0.3213    1.4188 O   0  0  0  0  0  0  0  0  0  0  0  0
    5.1715   -1.2403   -0.0241 O   0  0  0  0  0  0  0  0  0  0  0  0
   -1.4911   -1.8961   -0.2929 N   0  0  0  0  0  0  0  0  0  0  0  0
    2.8027   -1.5899   -1.2188 N   0  0  0  0  0  0  0  0  0  0  0  0
    0.4131   -1.0857    0.5097 C   0  0  0  0  0  0  0  0  0  0  0  0
    1.8142   -0.9904    0.9673 C   0  0  0  0  0  0  0  0  0  0  0  0
   -0.5465   -0.0352    0.4958 C   0  0  0  0  0  0  0  0  0  0  0  0
    2.8208   -0.5992   -0.1394 C   0  0  1  0  0  0  0  0  0  0  0  0
   -1.7324   -0.5700   -0.0122 C   0  0  0  0  0  0  0  0  0  0  0  0
   -0.1972   -2.2169    0.0190 C   0  0  0  0  0  0  0  0  0  0  0  0
   -0.5200    1.3237    0.8677 C   0  0  0  0  0  0  0  0  0  0  0  0
   -2.8977    0.1890   -0.1673 C   0  0  0  0  0  0  0  0  0  0  0  0
   -1.6782    2.0952    0.7181 C   0  0  0  0  0  0  0  0  0  0  0  0
    4.2401   -0.5694    0.4026 C   0  0  0  0  0  0  0  0  0  0  0  0
   -2.8476    1.5346    0.2083 C   0  0  0  0  0  0  0  0  0  0  0  0
    2.1153   -1.9556    1.3976 H   0  0  0  0  0  0  0  0  0  0  0  0
    1.8749   -0.2669    1.7921 H   0  0  0  0  0  0  0  0  0  0  0  0
    2.5763    0.3828   -0.5609 H   0  0  0  0  0  0  0  0  0  0  0  0
    0.1713   -3.2212   -0.1372 H   0  0  0  0  0  0  0  0  0  0  0  0
   -2.1714   -2.5387   -0.6744 H   0  0  0  0  0  0  0  0  0  0  0  0
    0.3797    1.7776    1.2726 H   0  0  0  0  0  0  0  0  0  0  0  0
   -1.6638    3.1434    1.0046 H   0  0  0  0  0  0  0  0  0  0  0  0
   -3.7274    2.1665    0.1069 H   0  0  0  0  0  0  0  0  0  0  0  0
    3.4047   -1.2765   -1.9797 H   0  0  0  0  0  0  0  0  0  0  0  0
    1.8627   -1.6512   -1.6085 H   0  0  0  0  0  0  0  0  0  0  0  0
    5.3034    0.3413    1.7597 H   0  0  0  0  0  0  0  0  0  0  0  0
  1 13  1  0  0  0  0
  2 15  1  0  0  0  0
  2 27  1  0  0  0  0
  3 15  2  0  0  0  0
  4 10  1  0  0  0  0
  4 11  1  0  0  0  0
  4 21  1  0  0  0  0
  5  9  1  0  0  0  0
  5 25  1  0  0  0  0
  5 26  1  0  0  0  0
  6  7  1  0  0  0  0
  6  8  1  0  0  0  0
  6 11  2  0  0  0  0
  7  9  1  0  0  0  0
  7 17  1  0  0  0  0
  7 18  1  0  0  0  0
  8 10  2  0  0  0  0
  8 12  1  0  0  0  0
  9 15  1  0  0  0  0
  9 19  1  6  0  0  0
 10 13  1  0  0  0  0
 11 20  1  0  0  0  0
 12 14  2  0  0  0  0
 12 22  1  0  0  0  0
 13 16  2  0  0  0  0
 14 16  1  0  0  0  0
 14 23  1  0  0  0  0
 16 24  1  0  0  0  0
M  END
>  <PUBCHEM_COMPOUND_CID>
11737641

>  <PUBCHEM_CONFORMER_RMSD>
0.6

>  <PUBCHEM_CONFORMER_DIVERSEORDER>
1
16
19
14
7
13
11
15
18
6
5
12
8
3
17
4
9
2
10

>  <PUBCHEM_MMFF94_PARTIAL_CHARGES>
23
1 -0.11
10 -0.15
11 -0.3
12 -0.15
13 0.11
14 -0.15
15 0.66
16 -0.15
2 -0.65
20 0.15
21 0.27
22 0.15
23 0.15
24 0.15
25 0.36
26 0.36
27 0.5
3 -0.57
4 0.03
5 -0.99
6 -0.18
7 0.18
9 0.33

>  <PUBCHEM_EFFECTIVE_ROTOR_COUNT>
3

>  <PUBCHEM_PHARMACOPHORE_FEATURES>
10
1 1 hydrophobe
1 2 acceptor
1 3 acceptor
1 4 cation
1 4 donor
1 5 cation
1 5 donor
3 2 3 15 anion
5 4 6 8 10 11 rings
6 8 10 12 13 14 16 rings

>  <PUBCHEM_HEAVY_ATOM_COUNT>
16

>  <PUBCHEM_ATOM_DEF_STEREO_COUNT>
1

>  <PUBCHEM_ATOM_UDEF_STEREO_COUNT>
0

>  <PUBCHEM_BOND_DEF_STEREO_COUNT>
0

>  <PUBCHEM_BOND_UDEF_STEREO_COUNT>
0

>  <PUBCHEM_ISOTOPIC_ATOM_COUNT>
0

>  <PUBCHEM_COMPONENT_COUNT>
1

>  <PUBCHEM_CACTVS_TAUTO_COUNT>
1

>  <PUBCHEM_CONFORMER_ID>
00B31A2900000001

>  <PUBCHEM_MMFF94_ENERGY>
21.2917

>  <PUBCHEM_FEATURE_SELFOVERLAP>
50.894

>  <PUBCHEM_SHAPE_FINGERPRINT>
10062212 137 18338790109833023619
11640471 11 17823430464157310204
13538477 17 18334570282594605042
14115302 16 18335699481004429023
14993402 34 18187928339683679406
15775835 57 18260559904629766484
16945 1 18340778082358437947
17802600 8 18261385633398388900
17862501 102 18338228272007223554
18186145 218 18408608041313143461
192875 21 18410006637383965324
20645476 183 18187076252595506835
21524375 3 18333733489768519475
23402539 116 18201710734874874452
23419403 2 16536722669594432170
23557571 272 17489867120170046770
23559900 14 18272087249550677728
2748010 2 16032660553244265307
353137 74 18410576201586879465
474 4 17677053563657309804
5262128 65 17702128961242040124
537710 114 18410572907668599745
53812653 8 18412546496559348171
7364860 26 17839465487959327439
7832392 63 17907866102070327712
9981440 41 17612874108177617872

>  <PUBCHEM_SHAPE_MULTIPOLES>
313.51
6.46
2.11
1.04
0.23
0.15
0.25
0.21
1.49
0.41
-0.22
-0.24
0.17
-0.9

>  <PUBCHEM_SHAPE_SELFOVERLAP>
660.914

>  <PUBCHEM_SHAPE_VOLUME>
180.8

>  <PUBCHEM_COORDINATE_TYPE>
2
5
10

$$$$
11737641
 OpenBabel12092211553D

 27 28  0  0  1  0  0  0  0  0999 V2000
   -4.4920   -0.5490   -0.8566 Br  0  0  0  0  0  0  0  0  0  0  0  0
    1.8961   -2.8246    3.2449 O   0  0  0  0  0  0  0  0  0  0  0  0
    0.4064   -1.3672    4.1381 O   0  0  0  0  0  0  0  0  0  0  0  0
   -1.4911   -1.8961   -0.2929 N   0  0  0  0  0  0  0  0  0  0  0  0
    3.3927   -0.5044    2.8079 N   0  0  0  0  0  0  0  0  0  0  0  0
    0.4131   -1.0857    0.5097 C   0  0  0  0  0  0  0  0  0  0  0  0
    1.8142   -0.9904    0.9673 C   0  0  0  0  0  0  0  0  0  0  0  0
   -0.5465   -0.0352    0.4958 C   0  0  0  0  0  0  0  0  0  0  0  0
    1.9741   -0.5716    2.4472 C   0  0  1  0  0  0  0  0  0  0  0  0
   -1.7324   -0.5700   -0.0122 C   0  0  0  0  0  0  0  0  0  0  0  0
   -0.1972   -2.2169    0.0190 C   0  0  0  0  0  0  0  0  0  0  0  0
   -0.5200    1.3237    0.8677 C   0  0  0  0  0  0  0  0  0  0  0  0
   -2.8977    0.1890   -0.1673 C   0  0  0  0  0  0  0  0  0  0  0  0
   -1.6782    2.0952    0.7181 C   0  0  0  0  0  0  0  0  0  0  0  0
    1.3357   -1.5933    3.3733 C   0  0  0  0  0  0  0  0  0  0  0  0
   -2.8476    1.5346    0.2083 C   0  0  0  0  0  0  0  0  0  0  0  0
    2.3481   -0.2690    0.3334 H   0  0  0  0  0  0  0  0  0  0  0  0
    2.3130   -1.9555    0.8022 H   0  0  0  0  0  0  0  0  0  0  0  0
    1.5200    0.4098    2.6271 H   0  0  0  0  0  0  0  0  0  0  0  0
    0.1713   -3.2212   -0.1372 H   0  0  0  0  0  0  0  0  0  0  0  0
   -2.1714   -2.5387   -0.6744 H   0  0  0  0  0  0  0  0  0  0  0  0
    0.3797    1.7776    1.2726 H   0  0  0  0  0  0  0  0  0  0  0  0
   -1.6638    3.1434    1.0046 H   0  0  0  0  0  0  0  0  0  0  0  0
   -3.7274    2.1665    0.1069 H   0  0  0  0  0  0  0  0  0  0  0  0
    3.4867   -0.1445    3.7572 H   0  0  0  0  0  0  0  0  0  0  0  0
    3.8661    0.1656    2.2029 H   0  0  0  0  0  0  0  0  0  0  0  0
    1.4752   -3.4813    3.8397 H   0  0  0  0  0  0  0  0  0  0  0  0
  1 13  1  0  0  0  0
  2 15  1  0  0  0  0
  2 27  1  0  0  0  0
  3 15  2  0  0  0  0
  4 10  1  0  0  0  0
  4 11  1  0  0  0  0
  4 21  1  0  0  0  0
  5  9  1  0  0  0  0
  5 25  1  0  0  0  0
  5 26  1  0  0  0  0
  6  7  1  0  0  0  0
  6  8  1  0  0  0  0
  6 11  2  0  0  0  0
  7  9  1  0  0  0  0
  7 17  1  0  0  0  0
  7 18  1  0  0  0  0
  8 10  2  0  0  0  0
  8 12  1  0  0  0  0
  9 15  1  0  0  0  0
  9 19  1  1  0  0  0
 10 13  1  0  0  0  0
 11 20  1  0  0  0  0
 12 14  2  0  0  0  0
 12 22  1  0  0  0  0
 13 16  2  0  0  0  0
 14 16  1  0  0  0  0
 14 23  1  0  0  0  0
 16 24  1  0  0  0  0
M  END
>  <PUBCHEM_COMPOUND_CID>
11737641

>  <PUBCHEM_CONFORMER_RMSD>
0.6

>  <PUBCHEM_CONFORMER_DIVERSEORDER>
1
16
19
14
7
13
11
15
18
6
5
12
8
3
17
4
9
2
10

>  <PUBCHEM_MMFF94_PARTIAL_CHARGES>
23
1 -0.11
10 -0.15
11 -0.3
12 -0.15
13 0.11
14 -0.15
15 0.66
16 -0.15
2 -0.65
20 0.15
21 0.27
22 0.15
23 0.15
24 0.15
25 0.36
26 0.36
27 0.5
3 -0.57
4 0.03
5 -0.99
6 -0.18
7 0.18
9 0.33

>  <PUBCHEM_EFFECTIVE_ROTOR_COUNT>
3

>  <PUBCHEM_PHARMACOPHORE_FEATURES>
10
1 1 hydrophobe
1 2 acceptor
1 3 acceptor
1 4 cation
1 4 donor
1 5 cation
1 5 donor
3 2 3 15 anion
5 4 6 8 10 11 rings
6 8 10 12 13 14 16 rings

>  <PUBCHEM_HEAVY_ATOM_COUNT>
16

>  <PUBCHEM_ATOM_DEF_STEREO_COUNT>
1

>  <PUBCHEM_ATOM_UDEF_STEREO_COUNT>
0

>  <PUBCHEM_BOND_DEF_STEREO_COUNT>
0

>  <PUBCHEM_BOND_UDEF_STEREO_COUNT>
0

>  <PUBCHEM_ISOTOPIC_ATOM_COUNT>
0

>  <PUBCHEM_COMPONENT_COUNT>
1

>  <PUBCHEM_CACTVS_TAUTO_COUNT>
1

>  <PUBCHEM_CONFORMER_ID>
00B31A2900000001

>  <PUBCHEM_MMFF94_ENERGY>
21.2917

>  <PUBCHEM_FEATURE_SELFOVERLAP>
50.894

>  <PUBCHEM_SHAPE_FINGERPRINT>
10062212 137 18338790109833023619
11640471 11 17823430464157310204
13538477 17 18334570282594605042
14115302 16 18335699481004429023
14993402 34 18187928339683679406
15775835 57 18260559904629766484
16945 1 18340778082358437947
17802600 8 18261385633398388900
17862501 102 18338228272007223554
18186145 218 18408608041313143461
192875 21 18410006637383965324
20645476 183 18187076252595506835
21524375 3 18333733489768519475
23402539 116 18201710734874874452
23419403 2 16536722669594432170
23557571 272 17489867120170046770
23559900 14 18272087249550677728
2748010 2 16032660553244265307
353137 74 18410576201586879465
474 4 17677053563657309804
5262128 65 17702128961242040124
537710 114 18410572907668599745
53812653 8 18412546496559348171
7364860 26 17839465487959327439
7832392 63 17907866102070327712
9981440 41 17612874108177617872

>  <PUBCHEM_SHAPE_MULTIPOLES>
313.51
6.46
2.11
1.04
0.23
0.15
0.25
0.21
1.49
0.41
-0.22
-0.24
0.17
-0.9

>  <PUBCHEM_SHAPE_SELFOVERLAP>
660.914

>  <PUBCHEM_SHAPE_VOLUME>
180.8

>  <PUBCHEM_COORDINATE_TYPE>
2
5
10

$$$$
11737641
 OpenBabel12092211553D

 27 28  0  0  1  0  0  0  0  0999 V2000
   -4.4920   -0.5490   -0.8566 Br  0  0  0  0  0  0  0  0  0  0  0  0
    4.6307   -1.7772    0.8876 O   0  0  0  0  0  0  0  0  0  0  0  0
    4.9615    0.4196    0.4344 O   0  0  0  0  0  0  0  0  0  0  0  0
   -1.4911   -1.8961   -0.2929 N   0  0  0  0  0  0  0  0  0  0  0  0
    2.8027   -1.5899   -1.2188 N   0  0  0  0  0  0  0  0  0  0  0  0
    0.4131   -1.0857    0.5097 C   0  0  0  0  0  0  0  0  0  0  0  0
    1.8142   -0.9904    0.9673 C   0  0  0  0  0  0  0  0  0  0  0  0
   -0.5465   -0.0352    0.4958 C   0  0  0  0  0  0  0  0  0  0  0  0
    2.8208   -0.5992   -0.1394 C   0  0  1  0  0  0  0  0  0  0  0  0
   -1.7324   -0.5700   -0.0122 C   0  0  0  0  0  0  0  0  0  0  0  0
   -0.1972   -2.2169    0.0190 C   0  0  0  0  0  0  0  0  0  0  0  0
   -0.5200    1.3237    0.8677 C   0  0  0  0  0  0  0  0  0  0  0  0
   -2.8977    0.1890   -0.1673 C   0  0  0  0  0  0  0  0  0  0  0  0
   -1.6782    2.0952    0.7181 C   0  0  0  0  0  0  0  0  0  0  0  0
    4.2401   -0.5694    0.4026 C   0  0  0  0  0  0  0  0  0  0  0  0
   -2.8476    1.5346    0.2083 C   0  0  0  0  0  0  0  0  0  0  0  0
    2.1153   -1.9556    1.3976 H   0  0  0  0  0  0  0  0  0  0  0  0
    1.8749   -0.2669    1.7921 H   0  0  0  0  0  0  0  0  0  0  0  0
    2.5763    0.3828   -0.5609 H   0  0  0  0  0  0  0  0  0  0  0  0
    0.1713   -3.2212   -0.1372 H   0  0  0  0  0  0  0  0  0  0  0  0
   -2.1714   -2.5387   -0.6744 H   0  0  0  0  0  0  0  0  0  0  0  0
    0.3797    1.7776    1.2726 H   0  0  0  0  0  0  0  0  0  0  0  0
   -1.6638    3.1434    1.0046 H   0  0  0  0  0  0  0  0  0  0  0  0
   -3.7274    2.1665    0.1069 H   0  0  0  0  0  0  0  0  0  0  0  0
    3.4047   -1.2765   -1.9797 H   0  0  0  0  0  0  0  0  0  0  0  0
    1.8627   -1.6512   -1.6085 H   0  0  0  0  0  0  0  0  0  0  0  0
    5.5448   -1.7500    1.2425 H   0  0  0  0  0  0  0  0  0  0  0  0
  1 13  1  0  0  0  0
  2 15  1  0  0  0  0
  2 27  1  0  0  0  0
  3 15  2  0  0  0  0
  4 10  1  0  0  0  0
  4 11  1  0  0  0  0
  4 21  1  0  0  0  0
  5  9  1  0  0  0  0
  5 25  1  0  0  0  0
  5 26  1  0  0  0  0
  6  7  1  0  0  0  0
  6  8  1  0  0  0  0
  6 11  2  0  0  0  0
  7  9  1  0  0  0  0
  7 17  1  0  0  0  0
  7 18  1  0  0  0  0
  8 10  2  0  0  0  0
  8 12  1  0  0  0  0
  9 15  1  0  0  0  0
  9 19  1  6  0  0  0
 10 13  1  0  0  0  0
 11 20  1  0  0  0  0
 12 14  2  0  0  0  0
 12 22  1  0  0  0  0
 13 16  2  0  0  0  0
 14 16  1  0  0  0  0
 14 23  1  0  0  0  0
 16 24  1  0  0  0  0
M  END
>  <PUBCHEM_COMPOUND_CID>
11737641

>  <PUBCHEM_CONFORMER_RMSD>
0.6

>  <PUBCHEM_CONFORMER_DIVERSEORDER>
1
16
19
14
7
13
11
15
18
6
5
12
8
3
17
4
9
2
10

>  <PUBCHEM_MMFF94_PARTIAL_CHARGES>
23
1 -0.11
10 -0.15
11 -0.3
12 -0.15
13 0.11
14 -0.15
15 0.66
16 -0.15
2 -0.65
20 0.15
21 0.27
22 0.15
23 0.15
24 0.15
25 0.36
26 0.36
27 0.5
3 -0.57
4 0.03
5 -0.99
6 -0.18
7 0.18
9 0.33

>  <PUBCHEM_EFFECTIVE_ROTOR_COUNT>
3

>  <PUBCHEM_PHARMACOPHORE_FEATURES>
10
1 1 hydrophobe
1 2 acceptor
1 3 acceptor
1 4 cation
1 4 donor
1 5 cation
1 5 donor
3 2 3 15 anion
5 4 6 8 10 11 rings
6 8 10 12 13 14 16 rings

>  <PUBCHEM_HEAVY_ATOM_COUNT>
16

>  <PUBCHEM_ATOM_DEF_STEREO_COUNT>
1

>  <PUBCHEM_ATOM_UDEF_STEREO_COUNT>
0

>  <PUBCHEM_BOND_DEF_STEREO_COUNT>
0

>  <PUBCHEM_BOND_UDEF_STEREO_COUNT>
0

>  <PUBCHEM_ISOTOPIC_ATOM_COUNT>
0

>  <PUBCHEM_COMPONENT_COUNT>
1

>  <PUBCHEM_CACTVS_TAUTO_COUNT>
1

>  <PUBCHEM_CONFORMER_ID>
00B31A2900000001

>  <PUBCHEM_MMFF94_ENERGY>
21.2917

>  <PUBCHEM_FEATURE_SELFOVERLAP>
50.894

>  <PUBCHEM_SHAPE_FINGERPRINT>
10062212 137 18338790109833023619
11640471 11 17823430464157310204
13538477 17 18334570282594605042
14115302 16 18335699481004429023
14993402 34 18187928339683679406
15775835 57 18260559904629766484
16945 1 18340778082358437947
17802600 8 18261385633398388900
17862501 102 18338228272007223554
18186145 218 18408608041313143461
192875 21 18410006637383965324
20645476 183 18187076252595506835
21524375 3 18333733489768519475
23402539 116 18201710734874874452
23419403 2 16536722669594432170
23557571 272 17489867120170046770
23559900 14 18272087249550677728
2748010 2 16032660553244265307
353137 74 18410576201586879465
474 4 17677053563657309804
5262128 65 17702128961242040124
537710 114 18410572907668599745
53812653 8 18412546496559348171
7364860 26 17839465487959327439
7832392 63 17907866102070327712
9981440 41 17612874108177617872

>  <PUBCHEM_SHAPE_MULTIPOLES>
313.51
6.46
2.11
1.04
0.23
0.15
0.25
0.21
1.49
0.41
-0.22
-0.24
0.17
-0.9

>  <PUBCHEM_SHAPE_SELFOVERLAP>
660.914

>  <PUBCHEM_SHAPE_VOLUME>
180.8

>  <PUBCHEM_COORDINATE_TYPE>
2
5
10

$$$$
11737641
 OpenBabel12092211553D

 27 28  0  0  1  0  0  0  0  0999 V2000
   -4.4920   -0.5490   -0.8566 Br  0  0  0  0  0  0  0  0  0  0  0  0
    3.7033   -1.3577    3.8806 O   0  0  0  0  0  0  0  0  0  0  0  0
    4.5891   -1.8791    1.8597 O   0  0  0  0  0  0  0  0  0  0  0  0
   -1.4911   -1.8961   -0.2929 N   0  0  0  0  0  0  0  0  0  0  0  0
    1.3283   -1.6345    3.3050 N   0  0  0  0  0  0  0  0  0  0  0  0
    0.4131   -1.0857    0.5097 C   0  0  0  0  0  0  0  0  0  0  0  0
    1.8142   -0.9904    0.9673 C   0  0  0  0  0  0  0  0  0  0  0  0
   -0.5465   -0.0352    0.4958 C   0  0  0  0  0  0  0  0  0  0  0  0
    2.1668   -1.9333    2.1411 C   0  0  1  0  0  0  0  0  0  0  0  0
   -1.7324   -0.5700   -0.0122 C   0  0  0  0  0  0  0  0  0  0  0  0
   -0.1972   -2.2169    0.0190 C   0  0  0  0  0  0  0  0  0  0  0  0
   -0.5200    1.3237    0.8677 C   0  0  0  0  0  0  0  0  0  0  0  0
   -2.8977    0.1890   -0.1673 C   0  0  0  0  0  0  0  0  0  0  0  0
   -1.6782    2.0952    0.7181 C   0  0  0  0  0  0  0  0  0  0  0  0
    3.6086   -1.7394    2.5799 C   0  0  0  0  0  0  0  0  0  0  0  0
   -2.8476    1.5346    0.2083 C   0  0  0  0  0  0  0  0  0  0  0  0
    2.0214    0.0458    1.2683 H   0  0  0  0  0  0  0  0  0  0  0  0
    2.4840   -1.1919    0.1198 H   0  0  0  0  0  0  0  0  0  0  0  0
    2.0146   -2.9818    1.8595 H   0  0  0  0  0  0  0  0  0  0  0  0
    0.1713   -3.2212   -0.1372 H   0  0  0  0  0  0  0  0  0  0  0  0
   -2.1714   -2.5387   -0.6744 H   0  0  0  0  0  0  0  0  0  0  0  0
    0.3797    1.7776    1.2726 H   0  0  0  0  0  0  0  0  0  0  0  0
   -1.6638    3.1434    1.0046 H   0  0  0  0  0  0  0  0  0  0  0  0
   -3.7274    2.1665    0.1069 H   0  0  0  0  0  0  0  0  0  0  0  0
    1.5094   -2.3172    4.0402 H   0  0  0  0  0  0  0  0  0  0  0  0
    0.3463   -1.7430    3.0536 H   0  0  0  0  0  0  0  0  0  0  0  0
    4.6356   -1.2272    4.1561 H   0  0  0  0  0  0  0  0  0  0  0  0
  1 13  1  0  0  0  0
  2 15  1  0  0  0  0
  2 27  1  0  0  0  0
  3 15  2  0  0  0  0
  4 10  1  0  0  0  0
  4 11  1  0  0  0  0
  4 21  1  0  0  0  0
  5  9  1  0  0  0  0
  5 25  1  0  0  0  0
  5 26  1  0  0  0  0
  6  7  1  0  0  0  0
  6  8  1  0  0  0  0
  6 11  2  0  0  0  0
  7  9  1  0  0  0  0
  7 17  1  0  0  0  0
  7 18  1  0  0  0  0
  8 10  2  0  0  0  0
  8 12  1  0  0  0  0
  9 15  1  0  0  0  0
  9 19  1  6  0  0  0
 10 13  1  0  0  0  0
 11 20  1  0  0  0  0
 12 14  2  0  0  0  0
 12 22  1  0  0  0  0
 13 16  2  0  0  0  0
 14 16  1  0  0  0  0
 14 23  1  0  0  0  0
 16 24  1  0  0  0  0
M  END
>  <PUBCHEM_COMPOUND_CID>
11737641

>  <PUBCHEM_CONFORMER_RMSD>
0.6

>  <PUBCHEM_CONFORMER_DIVERSEORDER>
1
16
19
14
7
13
11
15
18
6
5
12
8
3
17
4
9
2
10

>  <PUBCHEM_MMFF94_PARTIAL_CHARGES>
23
1 -0.11
10 -0.15
11 -0.3
12 -0.15
13 0.11
14 -0.15
15 0.66
16 -0.15
2 -0.65
20 0.15
21 0.27
22 0.15
23 0.15
24 0.15
25 0.36
26 0.36
27 0.5
3 -0.57
4 0.03
5 -0.99
6 -0.18
7 0.18
9 0.33

>  <PUBCHEM_EFFECTIVE_ROTOR_COUNT>
3

>  <PUBCHEM_PHARMACOPHORE_FEATURES>
10
1 1 hydrophobe
1 2 acceptor
1 3 acceptor
1 4 cation
1 4 donor
1 5 cation
1 5 donor
3 2 3 15 anion
5 4 6 8 10 11 rings
6 8 10 12 13 14 16 rings

>  <PUBCHEM_HEAVY_ATOM_COUNT>
16

>  <PUBCHEM_ATOM_DEF_STEREO_COUNT>
1

>  <PUBCHEM_ATOM_UDEF_STEREO_COUNT>
0

>  <PUBCHEM_BOND_DEF_STEREO_COUNT>
0

>  <PUBCHEM_BOND_UDEF_STEREO_COUNT>
0

>  <PUBCHEM_ISOTOPIC_ATOM_COUNT>
0

>  <PUBCHEM_COMPONENT_COUNT>
1

>  <PUBCHEM_CACTVS_TAUTO_COUNT>
1

>  <PUBCHEM_CONFORMER_ID>
00B31A2900000001

>  <PUBCHEM_MMFF94_ENERGY>
21.2917

>  <PUBCHEM_FEATURE_SELFOVERLAP>
50.894

>  <PUBCHEM_SHAPE_FINGERPRINT>
10062212 137 18338790109833023619
11640471 11 17823430464157310204
13538477 17 18334570282594605042
14115302 16 18335699481004429023
14993402 34 18187928339683679406
15775835 57 18260559904629766484
16945 1 18340778082358437947
17802600 8 18261385633398388900
17862501 102 18338228272007223554
18186145 218 18408608041313143461
192875 21 18410006637383965324
20645476 183 18187076252595506835
21524375 3 18333733489768519475
23402539 116 18201710734874874452
23419403 2 16536722669594432170
23557571 272 17489867120170046770
23559900 14 18272087249550677728
2748010 2 16032660553244265307
353137 74 18410576201586879465
474 4 17677053563657309804
5262128 65 17702128961242040124
537710 114 18410572907668599745
53812653 8 18412546496559348171
7364860 26 17839465487959327439
7832392 63 17907866102070327712
9981440 41 17612874108177617872

>  <PUBCHEM_SHAPE_MULTIPOLES>
313.51
6.46
2.11
1.04
0.23
0.15
0.25
0.21
1.49
0.41
-0.22
-0.24
0.17
-0.9

>  <PUBCHEM_SHAPE_SELFOVERLAP>
660.914

>  <PUBCHEM_SHAPE_VOLUME>
180.8

>  <PUBCHEM_COORDINATE_TYPE>
2
5
10

$$$$
11737641
 OpenBabel12092211553D

 27 28  0  0  1  0  0  0  0  0999 V2000
   -4.4920   -0.5490   -0.8566 Br  0  0  0  0  0  0  0  0  0  0  0  0
    4.4682   -1.1509    1.3340 O   0  0  0  0  0  0  0  0  0  0  0  0
    4.3379   -2.7406    2.9455 O   0  0  0  0  0  0  0  0  0  0  0  0
   -1.4911   -1.8961   -0.2929 N   0  0  0  0  0  0  0  0  0  0  0  0
    1.5967   -2.7304    2.7111 N   0  0  0  0  0  0  0  0  0  0  0  0
    0.4131   -1.0857    0.5097 C   0  0  0  0  0  0  0  0  0  0  0  0
    1.8142   -0.9904    0.9673 C   0  0  0  0  0  0  0  0  0  0  0  0
   -0.5465   -0.0352    0.4958 C   0  0  0  0  0  0  0  0  0  0  0  0
    2.3844   -2.3036    1.5517 C   0  0  1  0  0  0  0  0  0  0  0  0
   -1.7324   -0.5700   -0.0122 C   0  0  0  0  0  0  0  0  0  0  0  0
   -0.1972   -2.2169    0.0190 C   0  0  0  0  0  0  0  0  0  0  0  0
   -0.5200    1.3237    0.8677 C   0  0  0  0  0  0  0  0  0  0  0  0
   -2.8977    0.1890   -0.1673 C   0  0  0  0  0  0  0  0  0  0  0  0
   -1.6782    2.0952    0.7181 C   0  0  0  0  0  0  0  0  0  0  0  0
    3.8099   -2.1073    2.0401 C   0  0  0  0  0  0  0  0  0  0  0  0
   -2.8476    1.5346    0.2083 C   0  0  0  0  0  0  0  0  0  0  0  0
    1.8881   -0.2006    1.7276 H   0  0  0  0  0  0  0  0  0  0  0  0
    2.4438   -0.6560    0.1311 H   0  0  0  0  0  0  0  0  0  0  0  0
    2.3680   -3.1042    0.8030 H   0  0  0  0  0  0  0  0  0  0  0  0
    0.1713   -3.2212   -0.1372 H   0  0  0  0  0  0  0  0  0  0  0  0
   -2.1714   -2.5387   -0.6744 H   0  0  0  0  0  0  0  0  0  0  0  0
    0.3797    1.7776    1.2726 H   0  0  0  0  0  0  0  0  0  0  0  0
   -1.6638    3.1434    1.0046 H   0  0  0  0  0  0  0  0  0  0  0  0
   -3.7274    2.1665    0.1069 H   0  0  0  0  0  0  0  0  0  0  0  0
    1.9283   -3.6392    3.0330 H   0  0  0  0  0  0  0  0  0  0  0  0
    0.6259   -2.8659    2.4315 H   0  0  0  0  0  0  0  0  0  0  0  0
    5.3898   -1.0337    1.6489 H   0  0  0  0  0  0  0  0  0  0  0  0
  1 13  1  0  0  0  0
  2 15  1  0  0  0  0
  2 27  1  0  0  0  0
  3 15  2  0  0  0  0
  4 10  1  0  0  0  0
  4 11  1  0  0  0  0
  4 21  1  0  0  0  0
  5  9  1  0  0  0  0
  5 25  1  0  0  0  0
  5 26  1  0  0  0  0
  6  7  1  0  0  0  0
  6  8  1  0  0  0  0
  6 11  2  0  0  0  0
  7  9  1  0  0  0  0
  7 17  1  0  0  0  0
  7 18  1  0  0  0  0
  8 10  2  0  0  0  0
  8 12  1  0  0  0  0
  9 15  1  0  0  0  0
  9 19  1  6  0  0  0
 10 13  1  0  0  0  0
 11 20  1  0  0  0  0
 12 14  2  0  0  0  0
 12 22  1  0  0  0  0
 13 16  2  0  0  0  0
 14 16  1  0  0  0  0
 14 23  1  0  0  0  0
 16 24  1  0  0  0  0
M  END
>  <PUBCHEM_COMPOUND_CID>
11737641

>  <PUBCHEM_CONFORMER_RMSD>
0.6

>  <PUBCHEM_CONFORMER_DIVERSEORDER>
1
16
19
14
7
13
11
15
18
6
5
12
8
3
17
4
9
2
10

>  <PUBCHEM_MMFF94_PARTIAL_CHARGES>
23
1 -0.11
10 -0.15
11 -0.3
12 -0.15
13 0.11
14 -0.15
15 0.66
16 -0.15
2 -0.65
20 0.15
21 0.27
22 0.15
23 0.15
24 0.15
25 0.36
26 0.36
27 0.5
3 -0.57
4 0.03
5 -0.99
6 -0.18
7 0.18
9 0.33

>  <PUBCHEM_EFFECTIVE_ROTOR_COUNT>
3

>  <PUBCHEM_PHARMACOPHORE_FEATURES>
10
1 1 hydrophobe
1 2 acceptor
1 3 acceptor
1 4 cation
1 4 donor
1 5 cation
1 5 donor
3 2 3 15 anion
5 4 6 8 10 11 rings
6 8 10 12 13 14 16 rings

>  <PUBCHEM_HEAVY_ATOM_COUNT>
16

>  <PUBCHEM_ATOM_DEF_STEREO_COUNT>
1

>  <PUBCHEM_ATOM_UDEF_STEREO_COUNT>
0

>  <PUBCHEM_BOND_DEF_STEREO_COUNT>
0

>  <PUBCHEM_BOND_UDEF_STEREO_COUNT>
0

>  <PUBCHEM_ISOTOPIC_ATOM_COUNT>
0

>  <PUBCHEM_COMPONENT_COUNT>
1

>  <PUBCHEM_CACTVS_TAUTO_COUNT>
1

>  <PUBCHEM_CONFORMER_ID>
00B31A2900000001

>  <PUBCHEM_MMFF94_ENERGY>
21.2917

>  <PUBCHEM_FEATURE_SELFOVERLAP>
50.894

>  <PUBCHEM_SHAPE_FINGERPRINT>
10062212 137 18338790109833023619
11640471 11 17823430464157310204
13538477 17 18334570282594605042
14115302 16 18335699481004429023
14993402 34 18187928339683679406
15775835 57 18260559904629766484
16945 1 18340778082358437947
17802600 8 18261385633398388900
17862501 102 18338228272007223554
18186145 218 18408608041313143461
192875 21 18410006637383965324
20645476 183 18187076252595506835
21524375 3 18333733489768519475
23402539 116 18201710734874874452
23419403 2 16536722669594432170
23557571 272 17489867120170046770
23559900 14 18272087249550677728
2748010 2 16032660553244265307
353137 74 18410576201586879465
474 4 17677053563657309804
5262128 65 17702128961242040124
537710 114 18410572907668599745
53812653 8 18412546496559348171
7364860 26 17839465487959327439
7832392 63 17907866102070327712
9981440 41 17612874108177617872

>  <PUBCHEM_SHAPE_MULTIPOLES>
313.51
6.46
2.11
1.04
0.23
0.15
0.25
0.21
1.49
0.41
-0.22
-0.24
0.17
-0.9

>  <PUBCHEM_SHAPE_SELFOVERLAP>
660.914

>  <PUBCHEM_SHAPE_VOLUME>
180.8

>  <PUBCHEM_COORDINATE_TYPE>
2
5
10

$$$$
11737641
 OpenBabel12092211553D

 27 28  0  0  1  0  0  0  0  0999 V2000
   -4.4920   -0.5490   -0.8566 Br  0  0  0  0  0  0  0  0  0  0  0  0
    3.5749    0.7280   -1.1121 O   0  0  0  0  0  0  0  0  0  0  0  0
    2.0487   -0.4936   -2.2606 O   0  0  0  0  0  0  0  0  0  0  0  0
   -1.4911   -1.8961   -0.2929 N   0  0  0  0  0  0  0  0  0  0  0  0
    4.2179   -1.2055    0.4273 N   0  0  0  0  0  0  0  0  0  0  0  0
    0.4131   -1.0857    0.5097 C   0  0  0  0  0  0  0  0  0  0  0  0
    1.8142   -0.9904    0.9673 C   0  0  0  0  0  0  0  0  0  0  0  0
   -0.5465   -0.0352    0.4958 C   0  0  0  0  0  0  0  0  0  0  0  0
    2.8633   -1.3270   -0.1178 C   0  0  1  0  0  0  0  0  0  0  0  0
   -1.7324   -0.5700   -0.0122 C   0  0  0  0  0  0  0  0  0  0  0  0
   -0.1972   -2.2169    0.0190 C   0  0  0  0  0  0  0  0  0  0  0  0
   -0.5200    1.3237    0.8677 C   0  0  0  0  0  0  0  0  0  0  0  0
   -2.8977    0.1890   -0.1673 C   0  0  0  0  0  0  0  0  0  0  0  0
   -1.6782    2.0952    0.7181 C   0  0  0  0  0  0  0  0  0  0  0  0
    2.7719   -0.3550   -1.2822 C   0  0  0  0  0  0  0  0  0  0  0  0
   -2.8476    1.5346    0.2083 C   0  0  0  0  0  0  0  0  0  0  0  0
    1.9569   -1.6657    1.8222 H   0  0  0  0  0  0  0  0  0  0  0  0
    1.9979    0.0211    1.3553 H   0  0  0  0  0  0  0  0  0  0  0  0
    2.7259   -2.3486   -0.4908 H   0  0  0  0  0  0  0  0  0  0  0  0
    0.1713   -3.2212   -0.1372 H   0  0  0  0  0  0  0  0  0  0  0  0
   -2.1714   -2.5387   -0.6744 H   0  0  0  0  0  0  0  0  0  0  0  0
    0.3797    1.7776    1.2726 H   0  0  0  0  0  0  0  0  0  0  0  0
   -1.6638    3.1434    1.0046 H   0  0  0  0  0  0  0  0  0  0  0  0
   -3.7274    2.1665    0.1069 H   0  0  0  0  0  0  0  0  0  0  0  0
    4.8951   -1.5130   -0.2701 H   0  0  0  0  0  0  0  0  0  0  0  0
    4.3229   -1.8362    1.2212 H   0  0  0  0  0  0  0  0  0  0  0  0
    3.5064    1.3552   -1.8632 H   0  0  0  0  0  0  0  0  0  0  0  0
  1 13  1  0  0  0  0
  2 15  1  0  0  0  0
  2 27  1  0  0  0  0
  3 15  2  0  0  0  0
  4 10  1  0  0  0  0
  4 11  1  0  0  0  0
  4 21  1  0  0  0  0
  5  9  1  0  0  0  0
  5 25  1  0  0  0  0
  5 26  1  0  0  0  0
  6  7  1  0  0  0  0
  6  8  1  0  0  0  0
  6 11  2  0  0  0  0
  7  9  1  0  0  0  0
  7 17  1  0  0  0  0
  7 18  1  0  0  0  0
  8 10  2  0  0  0  0
  8 12  1  0  0  0  0
  9 15  1  0  0  0  0
  9 19  1  6  0  0  0
 10 13  1  0  0  0  0
 11 20  1  0  0  0  0
 12 14  2  0  0  0  0
 12 22  1  0  0  0  0
 13 16  2  0  0  0  0
 14 16  1  0  0  0  0
 14 23  1  0  0  0  0
 16 24  1  0  0  0  0
M  END
>  <PUBCHEM_COMPOUND_CID>
11737641

>  <PUBCHEM_CONFORMER_RMSD>
0.6

>  <PUBCHEM_CONFORMER_DIVERSEORDER>
1
16
19
14
7
13
11
15
18
6
5
12
8
3
17
4
9
2
10

>  <PUBCHEM_MMFF94_PARTIAL_CHARGES>
23
1 -0.11
10 -0.15
11 -0.3
12 -0.15
13 0.11
14 -0.15
15 0.66
16 -0.15
2 -0.65
20 0.15
21 0.27
22 0.15
23 0.15
24 0.15
25 0.36
26 0.36
27 0.5
3 -0.57
4 0.03
5 -0.99
6 -0.18
7 0.18
9 0.33

>  <PUBCHEM_EFFECTIVE_ROTOR_COUNT>
3

>  <PUBCHEM_PHARMACOPHORE_FEATURES>
10
1 1 hydrophobe
1 2 acceptor
1 3 acceptor
1 4 cation
1 4 donor
1 5 cation
1 5 donor
3 2 3 15 anion
5 4 6 8 10 11 rings
6 8 10 12 13 14 16 rings

>  <PUBCHEM_HEAVY_ATOM_COUNT>
16

>  <PUBCHEM_ATOM_DEF_STEREO_COUNT>
1

>  <PUBCHEM_ATOM_UDEF_STEREO_COUNT>
0

>  <PUBCHEM_BOND_DEF_STEREO_COUNT>
0

>  <PUBCHEM_BOND_UDEF_STEREO_COUNT>
0

>  <PUBCHEM_ISOTOPIC_ATOM_COUNT>
0

>  <PUBCHEM_COMPONENT_COUNT>
1

>  <PUBCHEM_CACTVS_TAUTO_COUNT>
1

>  <PUBCHEM_CONFORMER_ID>
00B31A2900000001

>  <PUBCHEM_MMFF94_ENERGY>
21.2917

>  <PUBCHEM_FEATURE_SELFOVERLAP>
50.894

>  <PUBCHEM_SHAPE_FINGERPRINT>
10062212 137 18338790109833023619
11640471 11 17823430464157310204
13538477 17 18334570282594605042
14115302 16 18335699481004429023
14993402 34 18187928339683679406
15775835 57 18260559904629766484
16945 1 18340778082358437947
17802600 8 18261385633398388900
17862501 102 18338228272007223554
18186145 218 18408608041313143461
192875 21 18410006637383965324
20645476 183 18187076252595506835
21524375 3 18333733489768519475
23402539 116 18201710734874874452
23419403 2 16536722669594432170
23557571 272 17489867120170046770
23559900 14 18272087249550677728
2748010 2 16032660553244265307
353137 74 18410576201586879465
474 4 17677053563657309804
5262128 65 17702128961242040124
537710 114 18410572907668599745
53812653 8 18412546496559348171
7364860 26 17839465487959327439
7832392 63 17907866102070327712
9981440 41 17612874108177617872

>  <PUBCHEM_SHAPE_MULTIPOLES>
313.51
6.46
2.11
1.04
0.23
0.15
0.25
0.21
1.49
0.41
-0.22
-0.24
0.17
-0.9

>  <PUBCHEM_SHAPE_SELFOVERLAP>
660.914

>  <PUBCHEM_SHAPE_VOLUME>
180.8

>  <PUBCHEM_COORDINATE_TYPE>
2
5
10

$$$$
11737641
 OpenBabel12092211553D

 27 28  0  0  1  0  0  0  0  0999 V2000
   -4.4920   -0.5490   -0.8566 Br  0  0  0  0  0  0  0  0  0  0  0  0
    2.7899   -3.7351    0.6977 O   0  0  0  0  0  0  0  0  0  0  0  0
    1.2095   -4.1735    2.2634 O   0  0  0  0  0  0  0  0  0  0  0  0
   -1.4911   -1.8961   -0.2929 N   0  0  0  0  0  0  0  0  0  0  0  0
    3.5715   -1.7683    2.5238 N   0  0  0  0  0  0  0  0  0  0  0  0
    0.4131   -1.0857    0.5097 C   0  0  0  0  0  0  0  0  0  0  0  0
    1.8142   -0.9904    0.9673 C   0  0  0  0  0  0  0  0  0  0  0  0
   -0.5465   -0.0352    0.4958 C   0  0  0  0  0  0  0  0  0  0  0  0
    2.1668   -1.9333    2.1411 C   0  0  1  0  0  0  0  0  0  0  0  0
   -1.7324   -0.5700   -0.0122 C   0  0  0  0  0  0  0  0  0  0  0  0
   -0.1972   -2.2169    0.0190 C   0  0  0  0  0  0  0  0  0  0  0  0
   -0.5200    1.3237    0.8677 C   0  0  0  0  0  0  0  0  0  0  0  0
   -2.8977    0.1890   -0.1673 C   0  0  0  0  0  0  0  0  0  0  0  0
   -1.6782    2.0952    0.7181 C   0  0  0  0  0  0  0  0  0  0  0  0
    1.9909   -3.3886    1.7409 C   0  0  0  0  0  0  0  0  0  0  0  0
   -2.8476    1.5346    0.2083 C   0  0  0  0  0  0  0  0  0  0  0  0
    2.0214    0.0458    1.2683 H   0  0  0  0  0  0  0  0  0  0  0  0
    2.4840   -1.1919    0.1198 H   0  0  0  0  0  0  0  0  0  0  0  0
    1.5386   -1.7222    3.0143 H   0  0  0  0  0  0  0  0  0  0  0  0
    0.1713   -3.2212   -0.1372 H   0  0  0  0  0  0  0  0  0  0  0  0
   -2.1714   -2.5387   -0.6744 H   0  0  0  0  0  0  0  0  0  0  0  0
    0.3797    1.7776    1.2726 H   0  0  0  0  0  0  0  0  0  0  0  0
   -1.6638    3.1434    1.0046 H   0  0  0  0  0  0  0  0  0  0  0  0
   -3.7274    2.1665    0.1069 H   0  0  0  0  0  0  0  0  0  0  0  0
    3.7677   -2.3298    3.3518 H   0  0  0  0  0  0  0  0  0  0  0  0
    3.7392   -0.7994    2.7925 H   0  0  0  0  0  0  0  0  0  0  0  0
    2.6669   -4.6734    0.4393 H   0  0  0  0  0  0  0  0  0  0  0  0
  1 13  1  0  0  0  0
  2 15  1  0  0  0  0
  2 27  1  0  0  0  0
  3 15  2  0  0  0  0
  4 10  1  0  0  0  0
  4 11  1  0  0  0  0
  4 21  1  0  0  0  0
  5  9  1  0  0  0  0
  5 25  1  0  0  0  0
  5 26  1  0  0  0  0
  6  7  1  0  0  0  0
  6  8  1  0  0  0  0
  6 11  2  0  0  0  0
  7  9  1  0  0  0  0
  7 17  1  0  0  0  0
  7 18  1  0  0  0  0
  8 10  2  0  0  0  0
  8 12  1  0  0  0  0
  9 15  1  0  0  0  0
  9 19  1  1  0  0  0
 10 13  1  0  0  0  0
 11 20  1  0  0  0  0
 12 14  2  0  0  0  0
 12 22  1  0  0  0  0
 13 16  2  0  0  0  0
 14 16  1  0  0  0  0
 14 23  1  0  0  0  0
 16 24  1  0  0  0  0
M  END
>  <PUBCHEM_COMPOUND_CID>
11737641

>  <PUBCHEM_CONFORMER_RMSD>
0.6

>  <PUBCHEM_CONFORMER_DIVERSEORDER>
1
16
19
14
7
13
11
15
18
6
5
12
8
3
17
4
9
2
10

>  <PUBCHEM_MMFF94_PARTIAL_CHARGES>
23
1 -0.11
10 -0.15
11 -0.3
12 -0.15
13 0.11
14 -0.15
15 0.66
16 -0.15
2 -0.65
20 0.15
21 0.27
22 0.15
23 0.15
24 0.15
25 0.36
26 0.36
27 0.5
3 -0.57
4 0.03
5 -0.99
6 -0.18
7 0.18
9 0.33

>  <PUBCHEM_EFFECTIVE_ROTOR_COUNT>
3

>  <PUBCHEM_PHARMACOPHORE_FEATURES>
10
1 1 hydrophobe
1 2 acceptor
1 3 acceptor
1 4 cation
1 4 donor
1 5 cation
1 5 donor
3 2 3 15 anion
5 4 6 8 10 11 rings
6 8 10 12 13 14 16 rings

>  <PUBCHEM_HEAVY_ATOM_COUNT>
16

>  <PUBCHEM_ATOM_DEF_STEREO_COUNT>
1

>  <PUBCHEM_ATOM_UDEF_STEREO_COUNT>
0

>  <PUBCHEM_BOND_DEF_STEREO_COUNT>
0

>  <PUBCHEM_BOND_UDEF_STEREO_COUNT>
0

>  <PUBCHEM_ISOTOPIC_ATOM_COUNT>
0

>  <PUBCHEM_COMPONENT_COUNT>
1

>  <PUBCHEM_CACTVS_TAUTO_COUNT>
1

>  <PUBCHEM_CONFORMER_ID>
00B31A2900000001

>  <PUBCHEM_MMFF94_ENERGY>
21.2917

>  <PUBCHEM_FEATURE_SELFOVERLAP>
50.894

>  <PUBCHEM_SHAPE_FINGERPRINT>
10062212 137 18338790109833023619
11640471 11 17823430464157310204
13538477 17 18334570282594605042
14115302 16 18335699481004429023
14993402 34 18187928339683679406
15775835 57 18260559904629766484
16945 1 18340778082358437947
17802600 8 18261385633398388900
17862501 102 18338228272007223554
18186145 218 18408608041313143461
192875 21 18410006637383965324
20645476 183 18187076252595506835
21524375 3 18333733489768519475
23402539 116 18201710734874874452
23419403 2 16536722669594432170
23557571 272 17489867120170046770
23559900 14 18272087249550677728
2748010 2 16032660553244265307
353137 74 18410576201586879465
474 4 17677053563657309804
5262128 65 17702128961242040124
537710 114 18410572907668599745
53812653 8 18412546496559348171
7364860 26 17839465487959327439
7832392 63 17907866102070327712
9981440 41 17612874108177617872

>  <PUBCHEM_SHAPE_MULTIPOLES>
313.51
6.46
2.11
1.04
0.23
0.15
0.25
0.21
1.49
0.41
-0.22
-0.24
0.17
-0.9

>  <PUBCHEM_SHAPE_SELFOVERLAP>
660.914

>  <PUBCHEM_SHAPE_VOLUME>
180.8

>  <PUBCHEM_COORDINATE_TYPE>
2
5
10

$$$$
11737641
 OpenBabel12092211553D

 27 28  0  0  1  0  0  0  0  0999 V2000
   -4.4920   -0.5490   -0.8566 Br  0  0  0  0  0  0  0  0  0  0  0  0
    4.6908   -2.9149    1.3932 O   0  0  0  0  0  0  0  0  0  0  0  0
    4.1503   -1.3367    2.9288 O   0  0  0  0  0  0  0  0  0  0  0  0
   -1.4911   -1.8961   -0.2929 N   0  0  0  0  0  0  0  0  0  0  0  0
    1.5967   -2.7304    2.7111 N   0  0  0  0  0  0  0  0  0  0  0  0
    0.4131   -1.0857    0.5097 C   0  0  0  0  0  0  0  0  0  0  0  0
    1.8142   -0.9904    0.9673 C   0  0  0  0  0  0  0  0  0  0  0  0
   -0.5465   -0.0352    0.4958 C   0  0  0  0  0  0  0  0  0  0  0  0
    2.3844   -2.3036    1.5517 C   0  0  1  0  0  0  0  0  0  0  0  0
   -1.7324   -0.5700   -0.0122 C   0  0  0  0  0  0  0  0  0  0  0  0
   -0.1972   -2.2169    0.0190 C   0  0  0  0  0  0  0  0  0  0  0  0
   -0.5200    1.3237    0.8677 C   0  0  0  0  0  0  0  0  0  0  0  0
   -2.8977    0.1890   -0.1673 C   0  0  0  0  0  0  0  0  0  0  0  0
   -1.6782    2.0952    0.7181 C   0  0  0  0  0  0  0  0  0  0  0  0
    3.8099   -2.1073    2.0401 C   0  0  0  0  0  0  0  0  0  0  0  0
   -2.8476    1.5346    0.2083 C   0  0  0  0  0  0  0  0  0  0  0  0
    1.8881   -0.2006    1.7276 H   0  0  0  0  0  0  0  0  0  0  0  0
    2.4438   -0.6560    0.1311 H   0  0  0  0  0  0  0  0  0  0  0  0
    2.3680   -3.1042    0.8030 H   0  0  0  0  0  0  0  0  0  0  0  0
    0.1713   -3.2212   -0.1372 H   0  0  0  0  0  0  0  0  0  0  0  0
   -2.1714   -2.5387   -0.6744 H   0  0  0  0  0  0  0  0  0  0  0  0
    0.3797    1.7776    1.2726 H   0  0  0  0  0  0  0  0  0  0  0  0
   -1.6638    3.1434    1.0046 H   0  0  0  0  0  0  0  0  0  0  0  0
   -3.7274    2.1665    0.1069 H   0  0  0  0  0  0  0  0  0  0  0  0
    1.9283   -3.6392    3.0330 H   0  0  0  0  0  0  0  0  0  0  0  0
    0.6259   -2.8659    2.4315 H   0  0  0  0  0  0  0  0  0  0  0  0
    5.6080   -2.7889    1.7176 H   0  0  0  0  0  0  0  0  0  0  0  0
  1 13  1  0  0  0  0
  2 15  1  0  0  0  0
  2 27  1  0  0  0  0
  3 15  2  0  0  0  0
  4 10  1  0  0  0  0
  4 11  1  0  0  0  0
  4 21  1  0  0  0  0
  5  9  1  0  0  0  0
  5 25  1  0  0  0  0
  5 26  1  0  0  0  0
  6  7  1  0  0  0  0
  6  8  1  0  0  0  0
  6 11  2  0  0  0  0
  7  9  1  0  0  0  0
  7 17  1  0  0  0  0
  7 18  1  0  0  0  0
  8 10  2  0  0  0  0
  8 12  1  0  0  0  0
  9 15  1  0  0  0  0
  9 19  1  6  0  0  0
 10 13  1  0  0  0  0
 11 20  1  0  0  0  0
 12 14  2  0  0  0  0
 12 22  1  0  0  0  0
 13 16  2  0  0  0  0
 14 16  1  0  0  0  0
 14 23  1  0  0  0  0
 16 24  1  0  0  0  0
M  END
>  <PUBCHEM_COMPOUND_CID>
11737641

>  <PUBCHEM_CONFORMER_RMSD>
0.6

>  <PUBCHEM_CONFORMER_DIVERSEORDER>
1
16
19
14
7
13
11
15
18
6
5
12
8
3
17
4
9
2
10

>  <PUBCHEM_MMFF94_PARTIAL_CHARGES>
23
1 -0.11
10 -0.15
11 -0.3
12 -0.15
13 0.11
14 -0.15
15 0.66
16 -0.15
2 -0.65
20 0.15
21 0.27
22 0.15
23 0.15
24 0.15
25 0.36
26 0.36
27 0.5
3 -0.57
4 0.03
5 -0.99
6 -0.18
7 0.18
9 0.33

>  <PUBCHEM_EFFECTIVE_ROTOR_COUNT>
3

>  <PUBCHEM_PHARMACOPHORE_FEATURES>
10
1 1 hydrophobe
1 2 acceptor
1 3 acceptor
1 4 cation
1 4 donor
1 5 cation
1 5 donor
3 2 3 15 anion
5 4 6 8 10 11 rings
6 8 10 12 13 14 16 rings

>  <PUBCHEM_HEAVY_ATOM_COUNT>
16

>  <PUBCHEM_ATOM_DEF_STEREO_COUNT>
1

>  <PUBCHEM_ATOM_UDEF_STEREO_COUNT>
0

>  <PUBCHEM_BOND_DEF_STEREO_COUNT>
0

>  <PUBCHEM_BOND_UDEF_STEREO_COUNT>
0

>  <PUBCHEM_ISOTOPIC_ATOM_COUNT>
0

>  <PUBCHEM_COMPONENT_COUNT>
1

>  <PUBCHEM_CACTVS_TAUTO_COUNT>
1

>  <PUBCHEM_CONFORMER_ID>
00B31A2900000001

>  <PUBCHEM_MMFF94_ENERGY>
21.2917

>  <PUBCHEM_FEATURE_SELFOVERLAP>
50.894

>  <PUBCHEM_SHAPE_FINGERPRINT>
10062212 137 18338790109833023619
11640471 11 17823430464157310204
13538477 17 18334570282594605042
14115302 16 18335699481004429023
14993402 34 18187928339683679406
15775835 57 18260559904629766484
16945 1 18340778082358437947
17802600 8 18261385633398388900
17862501 102 18338228272007223554
18186145 218 18408608041313143461
192875 21 18410006637383965324
20645476 183 18187076252595506835
21524375 3 18333733489768519475
23402539 116 18201710734874874452
23419403 2 16536722669594432170
23557571 272 17489867120170046770
23559900 14 18272087249550677728
2748010 2 16032660553244265307
353137 74 18410576201586879465
474 4 17677053563657309804
5262128 65 17702128961242040124
537710 114 18410572907668599745
53812653 8 18412546496559348171
7364860 26 17839465487959327439
7832392 63 17907866102070327712
9981440 41 17612874108177617872

>  <PUBCHEM_SHAPE_MULTIPOLES>
313.51
6.46
2.11
1.04
0.23
0.15
0.25
0.21
1.49
0.41
-0.22
-0.24
0.17
-0.9

>  <PUBCHEM_SHAPE_SELFOVERLAP>
660.914

>  <PUBCHEM_SHAPE_VOLUME>
180.8

>  <PUBCHEM_COORDINATE_TYPE>
2
5
10

$$$$
11737641
 OpenBabel12092211553D

 27 28  0  0  1  0  0  0  0  0999 V2000
   -4.4920   -0.5490   -0.8566 Br  0  0  0  0  0  0  0  0  0  0  0  0
    2.7067   -1.7268   -1.4582 O   0  0  0  0  0  0  0  0  0  0  0  0
    2.7598   -3.9366   -0.9539 O   0  0  0  0  0  0  0  0  0  0  0  0
   -1.4911   -1.8961   -0.2929 N   0  0  0  0  0  0  0  0  0  0  0  0
    3.9841   -2.1188    1.3335 N   0  0  0  0  0  0  0  0  0  0  0  0
    0.4131   -1.0857    0.5097 C   0  0  0  0  0  0  0  0  0  0  0  0
    1.8142   -0.9904    0.9673 C   0  0  0  0  0  0  0  0  0  0  0  0
   -0.5465   -0.0352    0.4958 C   0  0  0  0  0  0  0  0  0  0  0  0
    2.6113   -2.3110    0.8586 C   0  0  1  0  0  0  0  0  0  0  0  0
   -1.7324   -0.5700   -0.0122 C   0  0  0  0  0  0  0  0  0  0  0  0
   -0.1972   -2.2169    0.0190 C   0  0  0  0  0  0  0  0  0  0  0  0
   -0.5200    1.3237    0.8677 C   0  0  0  0  0  0  0  0  0  0  0  0
   -2.8977    0.1890   -0.1673 C   0  0  0  0  0  0  0  0  0  0  0  0
   -1.6782    2.0952    0.7181 C   0  0  0  0  0  0  0  0  0  0  0  0
    2.7090   -2.7695   -0.5868 C   0  0  0  0  0  0  0  0  0  0  0  0
   -2.8476    1.5346    0.2083 C   0  0  0  0  0  0  0  0  0  0  0  0
    1.8257   -0.6525    2.0128 H   0  0  0  0  0  0  0  0  0  0  0  0
    2.3264   -0.2036    0.3963 H   0  0  0  0  0  0  0  0  0  0  0  0
    2.1415   -3.1015    1.4554 H   0  0  0  0  0  0  0  0  0  0  0  0
    0.1713   -3.2212   -0.1372 H   0  0  0  0  0  0  0  0  0  0  0  0
   -2.1714   -2.5387   -0.6744 H   0  0  0  0  0  0  0  0  0  0  0  0
    0.3797    1.7776    1.2726 H   0  0  0  0  0  0  0  0  0  0  0  0
   -1.6638    3.1434    1.0046 H   0  0  0  0  0  0  0  0  0  0  0  0
   -3.7274    2.1665    0.1069 H   0  0  0  0  0  0  0  0  0  0  0  0
    4.4719   -3.0141    1.3381 H   0  0  0  0  0  0  0  0  0  0  0  0
    3.9676   -1.8003    2.3017 H   0  0  0  0  0  0  0  0  0  0  0  0
    2.7627   -2.0290   -2.3898 H   0  0  0  0  0  0  0  0  0  0  0  0
  1 13  1  0  0  0  0
  2 15  1  0  0  0  0
  2 27  1  0  0  0  0
  3 15  2  0  0  0  0
  4 10  1  0  0  0  0
  4 11  1  0  0  0  0
  4 21  1  0  0  0  0
  5  9  1  0  0  0  0
  5 25  1  0  0  0  0
  5 26  1  0  0  0  0
  6  7  1  0  0  0  0
  6  8  1  0  0  0  0
  6 11  2  0  0  0  0
  7  9  1  0  0  0  0
  7 17  1  0  0  0  0
  7 18  1  0  0  0  0
  8 10  2  0  0  0  0
  8 12  1  0  0  0  0
  9 15  1  0  0  0  0
  9 19  1  1  0  0  0
 10 13  1  0  0  0  0
 11 20  1  0  0  0  0
 12 14  2  0  0  0  0
 12 22  1  0  0  0  0
 13 16  2  0  0  0  0
 14 16  1  0  0  0  0
 14 23  1  0  0  0  0
 16 24  1  0  0  0  0
M  END
>  <PUBCHEM_COMPOUND_CID>
11737641

>  <PUBCHEM_CONFORMER_RMSD>
0.6

>  <PUBCHEM_CONFORMER_DIVERSEORDER>
1
16
19
14
7
13
11
15
18
6
5
12
8
3
17
4
9
2
10

>  <PUBCHEM_MMFF94_PARTIAL_CHARGES>
23
1 -0.11
10 -0.15
11 -0.3
12 -0.15
13 0.11
14 -0.15
15 0.66
16 -0.15
2 -0.65
20 0.15
21 0.27
22 0.15
23 0.15
24 0.15
25 0.36
26 0.36
27 0.5
3 -0.57
4 0.03
5 -0.99
6 -0.18
7 0.18
9 0.33

>  <PUBCHEM_EFFECTIVE_ROTOR_COUNT>
3

>  <PUBCHEM_PHARMACOPHORE_FEATURES>
10
1 1 hydrophobe
1 2 acceptor
1 3 acceptor
1 4 cation
1 4 donor
1 5 cation
1 5 donor
3 2 3 15 anion
5 4 6 8 10 11 rings
6 8 10 12 13 14 16 rings

>  <PUBCHEM_HEAVY_ATOM_COUNT>
16

>  <PUBCHEM_ATOM_DEF_STEREO_COUNT>
1

>  <PUBCHEM_ATOM_UDEF_STEREO_COUNT>
0

>  <PUBCHEM_BOND_DEF_STEREO_COUNT>
0

>  <PUBCHEM_BOND_UDEF_STEREO_COUNT>
0

>  <PUBCHEM_ISOTOPIC_ATOM_COUNT>
0

>  <PUBCHEM_COMPONENT_COUNT>
1

>  <PUBCHEM_CACTVS_TAUTO_COUNT>
1

>  <PUBCHEM_CONFORMER_ID>
00B31A2900000001

>  <PUBCHEM_MMFF94_ENERGY>
21.2917

>  <PUBCHEM_FEATURE_SELFOVERLAP>
50.894

>  <PUBCHEM_SHAPE_FINGERPRINT>
10062212 137 18338790109833023619
11640471 11 17823430464157310204
13538477 17 18334570282594605042
14115302 16 18335699481004429023
14993402 34 18187928339683679406
15775835 57 18260559904629766484
16945 1 18340778082358437947
17802600 8 18261385633398388900
17862501 102 18338228272007223554
18186145 218 18408608041313143461
192875 21 18410006637383965324
20645476 183 18187076252595506835
21524375 3 18333733489768519475
23402539 116 18201710734874874452
23419403 2 16536722669594432170
23557571 272 17489867120170046770
23559900 14 18272087249550677728
2748010 2 16032660553244265307
353137 74 18410576201586879465
474 4 17677053563657309804
5262128 65 17702128961242040124
537710 114 18410572907668599745
53812653 8 18412546496559348171
7364860 26 17839465487959327439
7832392 63 17907866102070327712
9981440 41 17612874108177617872

>  <PUBCHEM_SHAPE_MULTIPOLES>
313.51
6.46
2.11
1.04
0.23
0.15
0.25
0.21
1.49
0.41
-0.22
-0.24
0.17
-0.9

>  <PUBCHEM_SHAPE_SELFOVERLAP>
660.914

>  <PUBCHEM_SHAPE_VOLUME>
180.8

>  <PUBCHEM_COORDINATE_TYPE>
2
5
10

$$$$
11737641
 OpenBabel12092211553D

 27 28  0  0  1  0  0  0  0  0999 V2000
   -4.4920   -0.5490   -0.8566 Br  0  0  0  0  0  0  0  0  0  0  0  0
    2.6289   -3.4556    3.3018 O   0  0  0  0  0  0  0  0  0  0  0  0
    0.4888   -3.1964    2.5992 O   0  0  0  0  0  0  0  0  0  0  0  0
   -1.4911   -1.8961   -0.2929 N   0  0  0  0  0  0  0  0  0  0  0  0
    3.4321   -1.1799    2.8280 N   0  0  0  0  0  0  0  0  0  0  0  0
    0.4131   -1.0857    0.5097 C   0  0  0  0  0  0  0  0  0  0  0  0
    1.8142   -0.9904    0.9673 C   0  0  0  0  0  0  0  0  0  0  0  0
   -0.5465   -0.0352    0.4958 C   0  0  0  0  0  0  0  0  0  0  0  0
    2.0166   -1.2994    2.4689 C   0  0  1  0  0  0  0  0  0  0  0  0
   -1.7324   -0.5700   -0.0122 C   0  0  0  0  0  0  0  0  0  0  0  0
   -0.1972   -2.2169    0.0190 C   0  0  0  0  0  0  0  0  0  0  0  0
   -0.5200    1.3237    0.8677 C   0  0  0  0  0  0  0  0  0  0  0  0
   -2.8977    0.1890   -0.1673 C   0  0  0  0  0  0  0  0  0  0  0  0
   -1.6782    2.0952    0.7181 C   0  0  0  0  0  0  0  0  0  0  0  0
    1.6029   -2.7256    2.7909 C   0  0  0  0  0  0  0  0  0  0  0  0
   -2.8476    1.5346    0.2083 C   0  0  0  0  0  0  0  0  0  0  0  0
    2.1897    0.0208    0.7580 H   0  0  0  0  0  0  0  0  0  0  0  0
    2.4361   -1.6675    0.3654 H   0  0  0  0  0  0  0  0  0  0  0  0
    1.4375   -0.6078    3.0918 H   0  0  0  0  0  0  0  0  0  0  0  0
    0.1713   -3.2212   -0.1372 H   0  0  0  0  0  0  0  0  0  0  0  0
   -2.1714   -2.5387   -0.6744 H   0  0  0  0  0  0  0  0  0  0  0  0
    0.3797    1.7776    1.2726 H   0  0  0  0  0  0  0  0  0  0  0  0
   -1.6638    3.1434    1.0046 H   0  0  0  0  0  0  0  0  0  0  0  0
   -3.7274    2.1665    0.1069 H   0  0  0  0  0  0  0  0  0  0  0  0
    3.5400   -1.3004    3.8347 H   0  0  0  0  0  0  0  0  0  0  0  0
    3.7575   -0.2367    2.6193 H   0  0  0  0  0  0  0  0  0  0  0  0
    2.3579   -4.3771    3.5010 H   0  0  0  0  0  0  0  0  0  0  0  0
  1 13  1  0  0  0  0
  2 15  1  0  0  0  0
  2 27  1  0  0  0  0
  3 15  2  0  0  0  0
  4 10  1  0  0  0  0
  4 11  1  0  0  0  0
  4 21  1  0  0  0  0
  5  9  1  0  0  0  0
  5 25  1  0  0  0  0
  5 26  1  0  0  0  0
  6  7  1  0  0  0  0
  6  8  1  0  0  0  0
  6 11  2  0  0  0  0
  7  9  1  0  0  0  0
  7 17  1  0  0  0  0
  7 18  1  0  0  0  0
  8 10  2  0  0  0  0
  8 12  1  0  0  0  0
  9 15  1  0  0  0  0
  9 19  1  1  0  0  0
 10 13  1  0  0  0  0
 11 20  1  0  0  0  0
 12 14  2  0  0  0  0
 12 22  1  0  0  0  0
 13 16  2  0  0  0  0
 14 16  1  0  0  0  0
 14 23  1  0  0  0  0
 16 24  1  0  0  0  0
M  END
>  <PUBCHEM_COMPOUND_CID>
11737641

>  <PUBCHEM_CONFORMER_RMSD>
0.6

>  <PUBCHEM_CONFORMER_DIVERSEORDER>
1
16
19
14
7
13
11
15
18
6
5
12
8
3
17
4
9
2
10

>  <PUBCHEM_MMFF94_PARTIAL_CHARGES>
23
1 -0.11
10 -0.15
11 -0.3
12 -0.15
13 0.11
14 -0.15
15 0.66
16 -0.15
2 -0.65
20 0.15
21 0.27
22 0.15
23 0.15
24 0.15
25 0.36
26 0.36
27 0.5
3 -0.57
4 0.03
5 -0.99
6 -0.18
7 0.18
9 0.33

>  <PUBCHEM_EFFECTIVE_ROTOR_COUNT>
3

>  <PUBCHEM_PHARMACOPHORE_FEATURES>
10
1 1 hydrophobe
1 2 acceptor
1 3 acceptor
1 4 cation
1 4 donor
1 5 cation
1 5 donor
3 2 3 15 anion
5 4 6 8 10 11 rings
6 8 10 12 13 14 16 rings

>  <PUBCHEM_HEAVY_ATOM_COUNT>
16

>  <PUBCHEM_ATOM_DEF_STEREO_COUNT>
1

>  <PUBCHEM_ATOM_UDEF_STEREO_COUNT>
0

>  <PUBCHEM_BOND_DEF_STEREO_COUNT>
0

>  <PUBCHEM_BOND_UDEF_STEREO_COUNT>
0

>  <PUBCHEM_ISOTOPIC_ATOM_COUNT>
0

>  <PUBCHEM_COMPONENT_COUNT>
1

>  <PUBCHEM_CACTVS_TAUTO_COUNT>
1

>  <PUBCHEM_CONFORMER_ID>
00B31A2900000001

>  <PUBCHEM_MMFF94_ENERGY>
21.2917

>  <PUBCHEM_FEATURE_SELFOVERLAP>
50.894

>  <PUBCHEM_SHAPE_FINGERPRINT>
10062212 137 18338790109833023619
11640471 11 17823430464157310204
13538477 17 18334570282594605042
14115302 16 18335699481004429023
14993402 34 18187928339683679406
15775835 57 18260559904629766484
16945 1 18340778082358437947
17802600 8 18261385633398388900
17862501 102 18338228272007223554
18186145 218 18408608041313143461
192875 21 18410006637383965324
20645476 183 18187076252595506835
21524375 3 18333733489768519475
23402539 116 18201710734874874452
23419403 2 16536722669594432170
23557571 272 17489867120170046770
23559900 14 18272087249550677728
2748010 2 16032660553244265307
353137 74 18410576201586879465
474 4 17677053563657309804
5262128 65 17702128961242040124
537710 114 18410572907668599745
53812653 8 18412546496559348171
7364860 26 17839465487959327439
7832392 63 17907866102070327712
9981440 41 17612874108177617872

>  <PUBCHEM_SHAPE_MULTIPOLES>
313.51
6.46
2.11
1.04
0.23
0.15
0.25
0.21
1.49
0.41
-0.22
-0.24
0.17
-0.9

>  <PUBCHEM_SHAPE_SELFOVERLAP>
660.914

>  <PUBCHEM_SHAPE_VOLUME>
180.8

>  <PUBCHEM_COORDINATE_TYPE>
2
5
10

$$$$
11737641
 OpenBabel12092211553D

 27 28  0  0  1  0  0  0  0  0999 V2000
   -4.4920   -0.5490   -0.8566 Br  0  0  0  0  0  0  0  0  0  0  0  0
    0.3003   -1.0373    4.1132 O   0  0  0  0  0  0  0  0  0  0  0  0
    1.2677    0.8571    3.3282 O   0  0  0  0  0  0  0  0  0  0  0  0
   -1.4911   -1.8961   -0.2929 N   0  0  0  0  0  0  0  0  0  0  0  0
    1.5716   -2.6617    2.7739 N   0  0  0  0  0  0  0  0  0  0  0  0
    0.4131   -1.0857    0.5097 C   0  0  0  0  0  0  0  0  0  0  0  0
    1.8142   -0.9904    0.9673 C   0  0  0  0  0  0  0  0  0  0  0  0
   -0.5465   -0.0352    0.4958 C   0  0  0  0  0  0  0  0  0  0  0  0
    2.0166   -1.2994    2.4689 C   0  0  1  0  0  0  0  0  0  0  0  0
   -1.7324   -0.5700   -0.0122 C   0  0  0  0  0  0  0  0  0  0  0  0
   -0.1972   -2.2169    0.0190 C   0  0  0  0  0  0  0  0  0  0  0  0
   -0.5200    1.3237    0.8677 C   0  0  0  0  0  0  0  0  0  0  0  0
   -2.8977    0.1890   -0.1673 C   0  0  0  0  0  0  0  0  0  0  0  0
   -1.6782    2.0952    0.7181 C   0  0  0  0  0  0  0  0  0  0  0  0
    1.1864   -0.3647    3.3328 C   0  0  0  0  0  0  0  0  0  0  0  0
   -2.8476    1.5346    0.2083 C   0  0  0  0  0  0  0  0  0  0  0  0
    2.1897    0.0208    0.7580 H   0  0  0  0  0  0  0  0  0  0  0  0
    2.4361   -1.6675    0.3654 H   0  0  0  0  0  0  0  0  0  0  0  0
    3.0723   -1.2047    2.7487 H   0  0  0  0  0  0  0  0  0  0  0  0
    0.1713   -3.2212   -0.1372 H   0  0  0  0  0  0  0  0  0  0  0  0
   -2.1714   -2.5387   -0.6744 H   0  0  0  0  0  0  0  0  0  0  0  0
    0.3797    1.7776    1.2726 H   0  0  0  0  0  0  0  0  0  0  0  0
   -1.6638    3.1434    1.0046 H   0  0  0  0  0  0  0  0  0  0  0  0
   -3.7274    2.1665    0.1069 H   0  0  0  0  0  0  0  0  0  0  0  0
    1.7899   -2.8825    3.7450 H   0  0  0  0  0  0  0  0  0  0  0  0
    2.0975   -3.3261    2.2073 H   0  0  0  0  0  0  0  0  0  0  0  0
   -0.2375   -0.4286    4.6632 H   0  0  0  0  0  0  0  0  0  0  0  0
  1 13  1  0  0  0  0
  2 15  1  0  0  0  0
  2 27  1  0  0  0  0
  3 15  2  0  0  0  0
  4 10  1  0  0  0  0
  4 11  1  0  0  0  0
  4 21  1  0  0  0  0
  5  9  1  0  0  0  0
  5 25  1  0  0  0  0
  5 26  1  0  0  0  0
  6  7  1  0  0  0  0
  6  8  1  0  0  0  0
  6 11  2  0  0  0  0
  7  9  1  0  0  0  0
  7 17  1  0  0  0  0
  7 18  1  0  0  0  0
  8 10  2  0  0  0  0
  8 12  1  0  0  0  0
  9 15  1  0  0  0  0
  9 19  1  1  0  0  0
 10 13  1  0  0  0  0
 11 20  1  0  0  0  0
 12 14  2  0  0  0  0
 12 22  1  0  0  0  0
 13 16  2  0  0  0  0
 14 16  1  0  0  0  0
 14 23  1  0  0  0  0
 16 24  1  0  0  0  0
M  END
>  <PUBCHEM_COMPOUND_CID>
11737641

>  <PUBCHEM_CONFORMER_RMSD>
0.6

>  <PUBCHEM_CONFORMER_DIVERSEORDER>
1
16
19
14
7
13
11
15
18
6
5
12
8
3
17
4
9
2
10

>  <PUBCHEM_MMFF94_PARTIAL_CHARGES>
23
1 -0.11
10 -0.15
11 -0.3
12 -0.15
13 0.11
14 -0.15
15 0.66
16 -0.15
2 -0.65
20 0.15
21 0.27
22 0.15
23 0.15
24 0.15
25 0.36
26 0.36
27 0.5
3 -0.57
4 0.03
5 -0.99
6 -0.18
7 0.18
9 0.33

>  <PUBCHEM_EFFECTIVE_ROTOR_COUNT>
3

>  <PUBCHEM_PHARMACOPHORE_FEATURES>
10
1 1 hydrophobe
1 2 acceptor
1 3 acceptor
1 4 cation
1 4 donor
1 5 cation
1 5 donor
3 2 3 15 anion
5 4 6 8 10 11 rings
6 8 10 12 13 14 16 rings

>  <PUBCHEM_HEAVY_ATOM_COUNT>
16

>  <PUBCHEM_ATOM_DEF_STEREO_COUNT>
1

>  <PUBCHEM_ATOM_UDEF_STEREO_COUNT>
0

>  <PUBCHEM_BOND_DEF_STEREO_COUNT>
0

>  <PUBCHEM_BOND_UDEF_STEREO_COUNT>
0

>  <PUBCHEM_ISOTOPIC_ATOM_COUNT>
0

>  <PUBCHEM_COMPONENT_COUNT>
1

>  <PUBCHEM_CACTVS_TAUTO_COUNT>
1

>  <PUBCHEM_CONFORMER_ID>
00B31A2900000001

>  <PUBCHEM_MMFF94_ENERGY>
21.2917

>  <PUBCHEM_FEATURE_SELFOVERLAP>
50.894

>  <PUBCHEM_SHAPE_FINGERPRINT>
10062212 137 18338790109833023619
11640471 11 17823430464157310204
13538477 17 18334570282594605042
14115302 16 18335699481004429023
14993402 34 18187928339683679406
15775835 57 18260559904629766484
16945 1 18340778082358437947
17802600 8 18261385633398388900
17862501 102 18338228272007223554
18186145 218 18408608041313143461
192875 21 18410006637383965324
20645476 183 18187076252595506835
21524375 3 18333733489768519475
23402539 116 18201710734874874452
23419403 2 16536722669594432170
23557571 272 17489867120170046770
23559900 14 18272087249550677728
2748010 2 16032660553244265307
353137 74 18410576201586879465
474 4 17677053563657309804
5262128 65 17702128961242040124
537710 114 18410572907668599745
53812653 8 18412546496559348171
7364860 26 17839465487959327439
7832392 63 17907866102070327712
9981440 41 17612874108177617872

>  <PUBCHEM_SHAPE_MULTIPOLES>
313.51
6.46
2.11
1.04
0.23
0.15
0.25
0.21
1.49
0.41
-0.22
-0.24
0.17
-0.9

>  <PUBCHEM_SHAPE_SELFOVERLAP>
660.914

>  <PUBCHEM_SHAPE_VOLUME>
180.8

>  <PUBCHEM_COORDINATE_TYPE>
2
5
10

$$$$
11737641
 OpenBabel12092211553D

 27 28  0  0  1  0  0  0  0  0999 V2000
   -4.4920   -0.5490   -0.8566 Br  0  0  0  0  0  0  0  0  0  0  0  0
    0.8674   -0.3706    3.4011 O   0  0  0  0  0  0  0  0  0  0  0  0
    0.9579   -2.4967    4.1834 O   0  0  0  0  0  0  0  0  0  0  0  0
   -1.4911   -1.8961   -0.2929 N   0  0  0  0  0  0  0  0  0  0  0  0
    1.9494   -3.3303    1.7562 N   0  0  0  0  0  0  0  0  0  0  0  0
    0.4131   -1.0857    0.5097 C   0  0  0  0  0  0  0  0  0  0  0  0
    1.8142   -0.9904    0.9673 C   0  0  0  0  0  0  0  0  0  0  0  0
   -0.5465   -0.0352    0.4958 C   0  0  0  0  0  0  0  0  0  0  0  0
    2.1668   -1.9333    2.1411 C   0  0  1  0  0  0  0  0  0  0  0  0
   -1.7324   -0.5700   -0.0122 C   0  0  0  0  0  0  0  0  0  0  0  0
   -0.1972   -2.2169    0.0190 C   0  0  0  0  0  0  0  0  0  0  0  0
   -0.5200    1.3237    0.8677 C   0  0  0  0  0  0  0  0  0  0  0  0
   -2.8977    0.1890   -0.1673 C   0  0  0  0  0  0  0  0  0  0  0  0
   -1.6782    2.0952    0.7181 C   0  0  0  0  0  0  0  0  0  0  0  0
    1.2725   -1.6662    3.3403 C   0  0  0  0  0  0  0  0  0  0  0  0
   -2.8476    1.5346    0.2083 C   0  0  0  0  0  0  0  0  0  0  0  0
    2.0214    0.0458    1.2683 H   0  0  0  0  0  0  0  0  0  0  0  0
    2.4840   -1.1919    0.1198 H   0  0  0  0  0  0  0  0  0  0  0  0
    3.2144   -1.8110    2.4397 H   0  0  0  0  0  0  0  0  0  0  0  0
    0.1713   -3.2212   -0.1372 H   0  0  0  0  0  0  0  0  0  0  0  0
   -2.1714   -2.5387   -0.6744 H   0  0  0  0  0  0  0  0  0  0  0  0
    0.3797    1.7776    1.2726 H   0  0  0  0  0  0  0  0  0  0  0  0
   -1.6638    3.1434    1.0046 H   0  0  0  0  0  0  0  0  0  0  0  0
   -3.7274    2.1665    0.1069 H   0  0  0  0  0  0  0  0  0  0  0  0
    2.2667   -3.9441    2.5059 H   0  0  0  0  0  0  0  0  0  0  0  0
    2.5252   -3.5531    0.9451 H   0  0  0  0  0  0  0  0  0  0  0  0
    0.2965   -0.2025    4.1809 H   0  0  0  0  0  0  0  0  0  0  0  0
  1 13  1  0  0  0  0
  2 15  1  0  0  0  0
  2 27  1  0  0  0  0
  3 15  2  0  0  0  0
  4 10  1  0  0  0  0
  4 11  1  0  0  0  0
  4 21  1  0  0  0  0
  5  9  1  0  0  0  0
  5 25  1  0  0  0  0
  5 26  1  0  0  0  0
  6  7  1  0  0  0  0
  6  8  1  0  0  0  0
  6 11  2  0  0  0  0
  7  9  1  0  0  0  0
  7 17  1  0  0  0  0
  7 18  1  0  0  0  0
  8 10  2  0  0  0  0
  8 12  1  0  0  0  0
  9 15  1  0  0  0  0
  9 19  1  1  0  0  0
 10 13  1  0  0  0  0
 11 20  1  0  0  0  0
 12 14  2  0  0  0  0
 12 22  1  0  0  0  0
 13 16  2  0  0  0  0
 14 16  1  0  0  0  0
 14 23  1  0  0  0  0
 16 24  1  0  0  0  0
M  END
>  <PUBCHEM_COMPOUND_CID>
11737641

>  <PUBCHEM_CONFORMER_RMSD>
0.6

>  <PUBCHEM_CONFORMER_DIVERSEORDER>
1
16
19
14
7
13
11
15
18
6
5
12
8
3
17
4
9
2
10

>  <PUBCHEM_MMFF94_PARTIAL_CHARGES>
23
1 -0.11
10 -0.15
11 -0.3
12 -0.15
13 0.11
14 -0.15
15 0.66
16 -0.15
2 -0.65
20 0.15
21 0.27
22 0.15
23 0.15
24 0.15
25 0.36
26 0.36
27 0.5
3 -0.57
4 0.03
5 -0.99
6 -0.18
7 0.18
9 0.33

>  <PUBCHEM_EFFECTIVE_ROTOR_COUNT>
3

>  <PUBCHEM_PHARMACOPHORE_FEATURES>
10
1 1 hydrophobe
1 2 acceptor
1 3 acceptor
1 4 cation
1 4 donor
1 5 cation
1 5 donor
3 2 3 15 anion
5 4 6 8 10 11 rings
6 8 10 12 13 14 16 rings

>  <PUBCHEM_HEAVY_ATOM_COUNT>
16

>  <PUBCHEM_ATOM_DEF_STEREO_COUNT>
1

>  <PUBCHEM_ATOM_UDEF_STEREO_COUNT>
0

>  <PUBCHEM_BOND_DEF_STEREO_COUNT>
0

>  <PUBCHEM_BOND_UDEF_STEREO_COUNT>
0

>  <PUBCHEM_ISOTOPIC_ATOM_COUNT>
0

>  <PUBCHEM_COMPONENT_COUNT>
1

>  <PUBCHEM_CACTVS_TAUTO_COUNT>
1

>  <PUBCHEM_CONFORMER_ID>
00B31A2900000001

>  <PUBCHEM_MMFF94_ENERGY>
21.2917

>  <PUBCHEM_FEATURE_SELFOVERLAP>
50.894

>  <PUBCHEM_SHAPE_FINGERPRINT>
10062212 137 18338790109833023619
11640471 11 17823430464157310204
13538477 17 18334570282594605042
14115302 16 18335699481004429023
14993402 34 18187928339683679406
15775835 57 18260559904629766484
16945 1 18340778082358437947
17802600 8 18261385633398388900
17862501 102 18338228272007223554
18186145 218 18408608041313143461
192875 21 18410006637383965324
20645476 183 18187076252595506835
21524375 3 18333733489768519475
23402539 116 18201710734874874452
23419403 2 16536722669594432170
23557571 272 17489867120170046770
23559900 14 18272087249550677728
2748010 2 16032660553244265307
353137 74 18410576201586879465
474 4 17677053563657309804
5262128 65 17702128961242040124
537710 114 18410572907668599745
53812653 8 18412546496559348171
7364860 26 17839465487959327439
7832392 63 17907866102070327712
9981440 41 17612874108177617872

>  <PUBCHEM_SHAPE_MULTIPOLES>
313.51
6.46
2.11
1.04
0.23
0.15
0.25
0.21
1.49
0.41
-0.22
-0.24
0.17
-0.9

>  <PUBCHEM_SHAPE_SELFOVERLAP>
660.914

>  <PUBCHEM_SHAPE_VOLUME>
180.8

>  <PUBCHEM_COORDINATE_TYPE>
2
5
10

$$$$
11737641
 OpenBabel12092211553D

 27 28  0  0  1  0  0  0  0  0999 V2000
   -4.4920   -0.5490   -0.8566 Br  0  0  0  0  0  0  0  0  0  0  0  0
    3.6488   -2.6219   -1.1096 O   0  0  0  0  0  0  0  0  0  0  0  0
    2.0725   -1.4909   -2.2830 O   0  0  0  0  0  0  0  0  0  0  0  0
   -1.4911   -1.8961   -0.2929 N   0  0  0  0  0  0  0  0  0  0  0  0
    2.4775    0.7095   -0.7019 N   0  0  0  0  0  0  0  0  0  0  0  0
    0.4131   -1.0857    0.5097 C   0  0  0  0  0  0  0  0  0  0  0  0
    1.8142   -0.9904    0.9673 C   0  0  0  0  0  0  0  0  0  0  0  0
   -0.5465   -0.0352    0.4958 C   0  0  0  0  0  0  0  0  0  0  0  0
    2.8208   -0.5992   -0.1394 C   0  0  1  0  0  0  0  0  0  0  0  0
   -1.7324   -0.5700   -0.0122 C   0  0  0  0  0  0  0  0  0  0  0  0
   -0.1972   -2.2169    0.0190 C   0  0  0  0  0  0  0  0  0  0  0  0
   -0.5200    1.3237    0.8677 C   0  0  0  0  0  0  0  0  0  0  0  0
   -2.8977    0.1890   -0.1673 C   0  0  0  0  0  0  0  0  0  0  0  0
   -1.6782    2.0952    0.7181 C   0  0  0  0  0  0  0  0  0  0  0  0
    2.7792   -1.5931   -1.2881 C   0  0  0  0  0  0  0  0  0  0  0  0
   -2.8476    1.5346    0.2083 C   0  0  0  0  0  0  0  0  0  0  0  0
    2.1153   -1.9556    1.3976 H   0  0  0  0  0  0  0  0  0  0  0  0
    1.8749   -0.2669    1.7921 H   0  0  0  0  0  0  0  0  0  0  0  0
    3.8411   -0.5527    0.2588 H   0  0  0  0  0  0  0  0  0  0  0  0
    0.1713   -3.2212   -0.1372 H   0  0  0  0  0  0  0  0  0  0  0  0
   -2.1714   -2.5387   -0.6744 H   0  0  0  0  0  0  0  0  0  0  0  0
    0.3797    1.7776    1.2726 H   0  0  0  0  0  0  0  0  0  0  0  0
   -1.6638    3.1434    1.0046 H   0  0  0  0  0  0  0  0  0  0  0  0
   -3.7274    2.1665    0.1069 H   0  0  0  0  0  0  0  0  0  0  0  0
    3.1958    0.9940   -1.3671 H   0  0  0  0  0  0  0  0  0  0  0  0
    2.4837    1.4101    0.0385 H   0  0  0  0  0  0  0  0  0  0  0  0
    3.6227   -3.2563   -1.8573 H   0  0  0  0  0  0  0  0  0  0  0  0
  1 13  1  0  0  0  0
  2 15  1  0  0  0  0
  2 27  1  0  0  0  0
  3 15  2  0  0  0  0
  4 10  1  0  0  0  0
  4 11  1  0  0  0  0
  4 21  1  0  0  0  0
  5  9  1  0  0  0  0
  5 25  1  0  0  0  0
  5 26  1  0  0  0  0
  6  7  1  0  0  0  0
  6  8  1  0  0  0  0
  6 11  2  0  0  0  0
  7  9  1  0  0  0  0
  7 17  1  0  0  0  0
  7 18  1  0  0  0  0
  8 10  2  0  0  0  0
  8 12  1  0  0  0  0
  9 15  1  0  0  0  0
  9 19  1  1  0  0  0
 10 13  1  0  0  0  0
 11 20  1  0  0  0  0
 12 14  2  0  0  0  0
 12 22  1  0  0  0  0
 13 16  2  0  0  0  0
 14 16  1  0  0  0  0
 14 23  1  0  0  0  0
 16 24  1  0  0  0  0
M  END
>  <PUBCHEM_COMPOUND_CID>
11737641

>  <PUBCHEM_CONFORMER_RMSD>
0.6

>  <PUBCHEM_CONFORMER_DIVERSEORDER>
1
16
19
14
7
13
11
15
18
6
5
12
8
3
17
4
9
2
10

>  <PUBCHEM_MMFF94_PARTIAL_CHARGES>
23
1 -0.11
10 -0.15
11 -0.3
12 -0.15
13 0.11
14 -0.15
15 0.66
16 -0.15
2 -0.65
20 0.15
21 0.27
22 0.15
23 0.15
24 0.15
25 0.36
26 0.36
27 0.5
3 -0.57
4 0.03
5 -0.99
6 -0.18
7 0.18
9 0.33

>  <PUBCHEM_EFFECTIVE_ROTOR_COUNT>
3

>  <PUBCHEM_PHARMACOPHORE_FEATURES>
10
1 1 hydrophobe
1 2 acceptor
1 3 acceptor
1 4 cation
1 4 donor
1 5 cation
1 5 donor
3 2 3 15 anion
5 4 6 8 10 11 rings
6 8 10 12 13 14 16 rings

>  <PUBCHEM_HEAVY_ATOM_COUNT>
16

>  <PUBCHEM_ATOM_DEF_STEREO_COUNT>
1

>  <PUBCHEM_ATOM_UDEF_STEREO_COUNT>
0

>  <PUBCHEM_BOND_DEF_STEREO_COUNT>
0

>  <PUBCHEM_BOND_UDEF_STEREO_COUNT>
0

>  <PUBCHEM_ISOTOPIC_ATOM_COUNT>
0

>  <PUBCHEM_COMPONENT_COUNT>
1

>  <PUBCHEM_CACTVS_TAUTO_COUNT>
1

>  <PUBCHEM_CONFORMER_ID>
00B31A2900000001

>  <PUBCHEM_MMFF94_ENERGY>
21.2917

>  <PUBCHEM_FEATURE_SELFOVERLAP>
50.894

>  <PUBCHEM_SHAPE_FINGERPRINT>
10062212 137 18338790109833023619
11640471 11 17823430464157310204
13538477 17 18334570282594605042
14115302 16 18335699481004429023
14993402 34 18187928339683679406
15775835 57 18260559904629766484
16945 1 18340778082358437947
17802600 8 18261385633398388900
17862501 102 18338228272007223554
18186145 218 18408608041313143461
192875 21 18410006637383965324
20645476 183 18187076252595506835
21524375 3 18333733489768519475
23402539 116 18201710734874874452
23419403 2 16536722669594432170
23557571 272 17489867120170046770
23559900 14 18272087249550677728
2748010 2 16032660553244265307
353137 74 18410576201586879465
474 4 17677053563657309804
5262128 65 17702128961242040124
537710 114 18410572907668599745
53812653 8 18412546496559348171
7364860 26 17839465487959327439
7832392 63 17907866102070327712
9981440 41 17612874108177617872

>  <PUBCHEM_SHAPE_MULTIPOLES>
313.51
6.46
2.11
1.04
0.23
0.15
0.25
0.21
1.49
0.41
-0.22
-0.24
0.17
-0.9

>  <PUBCHEM_SHAPE_SELFOVERLAP>
660.914

>  <PUBCHEM_SHAPE_VOLUME>
180.8

>  <PUBCHEM_COORDINATE_TYPE>
2
5
10

$$$$
11737641
 OpenBabel12092211553D

 27 28  0  0  1  0  0  0  0  0999 V2000
   -4.4920   -0.5490   -0.8566 Br  0  0  0  0  0  0  0  0  0  0  0  0
    1.5111    0.1210   -1.4570 O   0  0  0  0  0  0  0  0  0  0  0  0
    3.7040   -0.0386   -2.0107 O   0  0  0  0  0  0  0  0  0  0  0  0
   -1.4911   -1.8961   -0.2929 N   0  0  0  0  0  0  0  0  0  0  0  0
    4.2179   -1.2055    0.4273 N   0  0  0  0  0  0  0  0  0  0  0  0
    0.4131   -1.0857    0.5097 C   0  0  0  0  0  0  0  0  0  0  0  0
    1.8142   -0.9904    0.9673 C   0  0  0  0  0  0  0  0  0  0  0  0
   -0.5465   -0.0352    0.4958 C   0  0  0  0  0  0  0  0  0  0  0  0
    2.8633   -1.3270   -0.1178 C   0  0  1  0  0  0  0  0  0  0  0  0
   -1.7324   -0.5700   -0.0122 C   0  0  0  0  0  0  0  0  0  0  0  0
   -0.1972   -2.2169    0.0190 C   0  0  0  0  0  0  0  0  0  0  0  0
   -0.5200    1.3237    0.8677 C   0  0  0  0  0  0  0  0  0  0  0  0
   -2.8977    0.1890   -0.1673 C   0  0  0  0  0  0  0  0  0  0  0  0
   -1.6782    2.0952    0.7181 C   0  0  0  0  0  0  0  0  0  0  0  0
    2.7719   -0.3550   -1.2822 C   0  0  0  0  0  0  0  0  0  0  0  0
   -2.8476    1.5346    0.2083 C   0  0  0  0  0  0  0  0  0  0  0  0
    1.9569   -1.6657    1.8222 H   0  0  0  0  0  0  0  0  0  0  0  0
    1.9979    0.0211    1.3553 H   0  0  0  0  0  0  0  0  0  0  0  0
    2.7259   -2.3486   -0.4908 H   0  0  0  0  0  0  0  0  0  0  0  0
    0.1713   -3.2212   -0.1372 H   0  0  0  0  0  0  0  0  0  0  0  0
   -2.1714   -2.5387   -0.6744 H   0  0  0  0  0  0  0  0  0  0  0  0
    0.3797    1.7776    1.2726 H   0  0  0  0  0  0  0  0  0  0  0  0
   -1.6638    3.1434    1.0046 H   0  0  0  0  0  0  0  0  0  0  0  0
   -3.7274    2.1665    0.1069 H   0  0  0  0  0  0  0  0  0  0  0  0
    4.8951   -1.5130   -0.2701 H   0  0  0  0  0  0  0  0  0  0  0  0
    4.3229   -1.8362    1.2212 H   0  0  0  0  0  0  0  0  0  0  0  0
    1.4568    0.7422   -2.2142 H   0  0  0  0  0  0  0  0  0  0  0  0
  1 13  1  0  0  0  0
  2 15  1  0  0  0  0
  2 27  1  0  0  0  0
  3 15  2  0  0  0  0
  4 10  1  0  0  0  0
  4 11  1  0  0  0  0
  4 21  1  0  0  0  0
  5  9  1  0  0  0  0
  5 25  1  0  0  0  0
  5 26  1  0  0  0  0
  6  7  1  0  0  0  0
  6  8  1  0  0  0  0
  6 11  2  0  0  0  0
  7  9  1  0  0  0  0
  7 17  1  0  0  0  0
  7 18  1  0  0  0  0
  8 10  2  0  0  0  0
  8 12  1  0  0  0  0
  9 15  1  0  0  0  0
  9 19  1  6  0  0  0
 10 13  1  0  0  0  0
 11 20  1  0  0  0  0
 12 14  2  0  0  0  0
 12 22  1  0  0  0  0
 13 16  2  0  0  0  0
 14 16  1  0  0  0  0
 14 23  1  0  0  0  0
 16 24  1  0  0  0  0
M  END
>  <PUBCHEM_COMPOUND_CID>
11737641

>  <PUBCHEM_CONFORMER_RMSD>
0.6

>  <PUBCHEM_CONFORMER_DIVERSEORDER>
1
16
19
14
7
13
11
15
18
6
5
12
8
3
17
4
9
2
10

>  <PUBCHEM_MMFF94_PARTIAL_CHARGES>
23
1 -0.11
10 -0.15
11 -0.3
12 -0.15
13 0.11
14 -0.15
15 0.66
16 -0.15
2 -0.65
20 0.15
21 0.27
22 0.15
23 0.15
24 0.15
25 0.36
26 0.36
27 0.5
3 -0.57
4 0.03
5 -0.99
6 -0.18
7 0.18
9 0.33

>  <PUBCHEM_EFFECTIVE_ROTOR_COUNT>
3

>  <PUBCHEM_PHARMACOPHORE_FEATURES>
10
1 1 hydrophobe
1 2 acceptor
1 3 acceptor
1 4 cation
1 4 donor
1 5 cation
1 5 donor
3 2 3 15 anion
5 4 6 8 10 11 rings
6 8 10 12 13 14 16 rings

>  <PUBCHEM_HEAVY_ATOM_COUNT>
16

>  <PUBCHEM_ATOM_DEF_STEREO_COUNT>
1

>  <PUBCHEM_ATOM_UDEF_STEREO_COUNT>
0

>  <PUBCHEM_BOND_DEF_STEREO_COUNT>
0

>  <PUBCHEM_BOND_UDEF_STEREO_COUNT>
0

>  <PUBCHEM_ISOTOPIC_ATOM_COUNT>
0

>  <PUBCHEM_COMPONENT_COUNT>
1

>  <PUBCHEM_CACTVS_TAUTO_COUNT>
1

>  <PUBCHEM_CONFORMER_ID>
00B31A2900000001

>  <PUBCHEM_MMFF94_ENERGY>
21.2917

>  <PUBCHEM_FEATURE_SELFOVERLAP>
50.894

>  <PUBCHEM_SHAPE_FINGERPRINT>
10062212 137 18338790109833023619
11640471 11 17823430464157310204
13538477 17 18334570282594605042
14115302 16 18335699481004429023
14993402 34 18187928339683679406
15775835 57 18260559904629766484
16945 1 18340778082358437947
17802600 8 18261385633398388900
17862501 102 18338228272007223554
18186145 218 18408608041313143461
192875 21 18410006637383965324
20645476 183 18187076252595506835
21524375 3 18333733489768519475
23402539 116 18201710734874874452
23419403 2 16536722669594432170
23557571 272 17489867120170046770
23559900 14 18272087249550677728
2748010 2 16032660553244265307
353137 74 18410576201586879465
474 4 17677053563657309804
5262128 65 17702128961242040124
537710 114 18410572907668599745
53812653 8 18412546496559348171
7364860 26 17839465487959327439
7832392 63 17907866102070327712
9981440 41 17612874108177617872

>  <PUBCHEM_SHAPE_MULTIPOLES>
313.51
6.46
2.11
1.04
0.23
0.15
0.25
0.21
1.49
0.41
-0.22
-0.24
0.17
-0.9

>  <PUBCHEM_SHAPE_SELFOVERLAP>
660.914

>  <PUBCHEM_SHAPE_VOLUME>
180.8

>  <PUBCHEM_COORDINATE_TYPE>
2
5
10

$$$$
11737641
 OpenBabel12092211553D

 27 28  0  0  1  0  0  0  0  0999 V2000
   -4.4920   -0.5490   -0.8566 Br  0  0  0  0  0  0  0  0  0  0  0  0
    0.2969   -2.9607    2.4979 O   0  0  0  0  0  0  0  0  0  0  0  0
    2.3334   -3.5774    3.2813 O   0  0  0  0  0  0  0  0  0  0  0  0
   -1.4911   -1.8961   -0.2929 N   0  0  0  0  0  0  0  0  0  0  0  0
    3.4321   -1.1799    2.8280 N   0  0  0  0  0  0  0  0  0  0  0  0
    0.4131   -1.0857    0.5097 C   0  0  0  0  0  0  0  0  0  0  0  0
    1.8142   -0.9904    0.9673 C   0  0  0  0  0  0  0  0  0  0  0  0
   -0.5465   -0.0352    0.4958 C   0  0  0  0  0  0  0  0  0  0  0  0
    2.0166   -1.2994    2.4689 C   0  0  1  0  0  0  0  0  0  0  0  0
   -1.7324   -0.5700   -0.0122 C   0  0  0  0  0  0  0  0  0  0  0  0
   -0.1972   -2.2169    0.0190 C   0  0  0  0  0  0  0  0  0  0  0  0
   -0.5200    1.3237    0.8677 C   0  0  0  0  0  0  0  0  0  0  0  0
   -2.8977    0.1890   -0.1673 C   0  0  0  0  0  0  0  0  0  0  0  0
   -1.6782    2.0952    0.7181 C   0  0  0  0  0  0  0  0  0  0  0  0
    1.6029   -2.7256    2.7909 C   0  0  0  0  0  0  0  0  0  0  0  0
   -2.8476    1.5346    0.2083 C   0  0  0  0  0  0  0  0  0  0  0  0
    2.1897    0.0208    0.7580 H   0  0  0  0  0  0  0  0  0  0  0  0
    2.4361   -1.6675    0.3654 H   0  0  0  0  0  0  0  0  0  0  0  0
    1.4375   -0.6078    3.0918 H   0  0  0  0  0  0  0  0  0  0  0  0
    0.1713   -3.2212   -0.1372 H   0  0  0  0  0  0  0  0  0  0  0  0
   -2.1714   -2.5387   -0.6744 H   0  0  0  0  0  0  0  0  0  0  0  0
    0.3797    1.7776    1.2726 H   0  0  0  0  0  0  0  0  0  0  0  0
   -1.6638    3.1434    1.0046 H   0  0  0  0  0  0  0  0  0  0  0  0
   -3.7274    2.1665    0.1069 H   0  0  0  0  0  0  0  0  0  0  0  0
    3.5400   -1.3004    3.8347 H   0  0  0  0  0  0  0  0  0  0  0  0
    3.7575   -0.2367    2.6193 H   0  0  0  0  0  0  0  0  0  0  0  0
    0.0338   -3.8806    2.7145 H   0  0  0  0  0  0  0  0  0  0  0  0
  1 13  1  0  0  0  0
  2 15  1  0  0  0  0
  2 27  1  0  0  0  0
  3 15  2  0  0  0  0
  4 10  1  0  0  0  0
  4 11  1  0  0  0  0
  4 21  1  0  0  0  0
  5  9  1  0  0  0  0
  5 25  1  0  0  0  0
  5 26  1  0  0  0  0
  6  7  1  0  0  0  0
  6  8  1  0  0  0  0
  6 11  2  0  0  0  0
  7  9  1  0  0  0  0
  7 17  1  0  0  0  0
  7 18  1  0  0  0  0
  8 10  2  0  0  0  0
  8 12  1  0  0  0  0
  9 15  1  0  0  0  0
  9 19  1  1  0  0  0
 10 13  1  0  0  0  0
 11 20  1  0  0  0  0
 12 14  2  0  0  0  0
 12 22  1  0  0  0  0
 13 16  2  0  0  0  0
 14 16  1  0  0  0  0
 14 23  1  0  0  0  0
 16 24  1  0  0  0  0
M  END
>  <PUBCHEM_COMPOUND_CID>
11737641

>  <PUBCHEM_CONFORMER_RMSD>
0.6

>  <PUBCHEM_CONFORMER_DIVERSEORDER>
1
16
19
14
7
13
11
15
18
6
5
12
8
3
17
4
9
2
10

>  <PUBCHEM_MMFF94_PARTIAL_CHARGES>
23
1 -0.11
10 -0.15
11 -0.3
12 -0.15
13 0.11
14 -0.15
15 0.66
16 -0.15
2 -0.65
20 0.15
21 0.27
22 0.15
23 0.15
24 0.15
25 0.36
26 0.36
27 0.5
3 -0.57
4 0.03
5 -0.99
6 -0.18
7 0.18
9 0.33

>  <PUBCHEM_EFFECTIVE_ROTOR_COUNT>
3

>  <PUBCHEM_PHARMACOPHORE_FEATURES>
10
1 1 hydrophobe
1 2 acceptor
1 3 acceptor
1 4 cation
1 4 donor
1 5 cation
1 5 donor
3 2 3 15 anion
5 4 6 8 10 11 rings
6 8 10 12 13 14 16 rings

>  <PUBCHEM_HEAVY_ATOM_COUNT>
16

>  <PUBCHEM_ATOM_DEF_STEREO_COUNT>
1

>  <PUBCHEM_ATOM_UDEF_STEREO_COUNT>
0

>  <PUBCHEM_BOND_DEF_STEREO_COUNT>
0

>  <PUBCHEM_BOND_UDEF_STEREO_COUNT>
0

>  <PUBCHEM_ISOTOPIC_ATOM_COUNT>
0

>  <PUBCHEM_COMPONENT_COUNT>
1

>  <PUBCHEM_CACTVS_TAUTO_COUNT>
1

>  <PUBCHEM_CONFORMER_ID>
00B31A2900000001

>  <PUBCHEM_MMFF94_ENERGY>
21.2917

>  <PUBCHEM_FEATURE_SELFOVERLAP>
50.894

>  <PUBCHEM_SHAPE_FINGERPRINT>
10062212 137 18338790109833023619
11640471 11 17823430464157310204
13538477 17 18334570282594605042
14115302 16 18335699481004429023
14993402 34 18187928339683679406
15775835 57 18260559904629766484
16945 1 18340778082358437947
17802600 8 18261385633398388900
17862501 102 18338228272007223554
18186145 218 18408608041313143461
192875 21 18410006637383965324
20645476 183 18187076252595506835
21524375 3 18333733489768519475
23402539 116 18201710734874874452
23419403 2 16536722669594432170
23557571 272 17489867120170046770
23559900 14 18272087249550677728
2748010 2 16032660553244265307
353137 74 18410576201586879465
474 4 17677053563657309804
5262128 65 17702128961242040124
537710 114 18410572907668599745
53812653 8 18412546496559348171
7364860 26 17839465487959327439
7832392 63 17907866102070327712
9981440 41 17612874108177617872

>  <PUBCHEM_SHAPE_MULTIPOLES>
313.51
6.46
2.11
1.04
0.23
0.15
0.25
0.21
1.49
0.41
-0.22
-0.24
0.17
-0.9

>  <PUBCHEM_SHAPE_SELFOVERLAP>
660.914

>  <PUBCHEM_SHAPE_VOLUME>
180.8

>  <PUBCHEM_COORDINATE_TYPE>
2
5
10

$$$$
11737641
 OpenBabel12092211553D

 27 28  0  0  1  0  0  0  0  0999 V2000
   -4.4920   -0.5490   -0.8566 Br  0  0  0  0  0  0  0  0  0  0  0  0
    1.5647   -2.4777    4.3904 O   0  0  0  0  0  0  0  0  0  0  0  0
    0.3695   -0.8398    3.3756 O   0  0  0  0  0  0  0  0  0  0  0  0
   -1.4911   -1.8961   -0.2929 N   0  0  0  0  0  0  0  0  0  0  0  0
    1.9494   -3.3303    1.7562 N   0  0  0  0  0  0  0  0  0  0  0  0
    0.4131   -1.0857    0.5097 C   0  0  0  0  0  0  0  0  0  0  0  0
    1.8142   -0.9904    0.9673 C   0  0  0  0  0  0  0  0  0  0  0  0
   -0.5465   -0.0352    0.4958 C   0  0  0  0  0  0  0  0  0  0  0  0
    2.1668   -1.9333    2.1411 C   0  0  1  0  0  0  0  0  0  0  0  0
   -1.7324   -0.5700   -0.0122 C   0  0  0  0  0  0  0  0  0  0  0  0
   -0.1972   -2.2169    0.0190 C   0  0  0  0  0  0  0  0  0  0  0  0
   -0.5200    1.3237    0.8677 C   0  0  0  0  0  0  0  0  0  0  0  0
   -2.8977    0.1890   -0.1673 C   0  0  0  0  0  0  0  0  0  0  0  0
   -1.6782    2.0952    0.7181 C   0  0  0  0  0  0  0  0  0  0  0  0
    1.2725   -1.6662    3.3403 C   0  0  0  0  0  0  0  0  0  0  0  0
   -2.8476    1.5346    0.2083 C   0  0  0  0  0  0  0  0  0  0  0  0
    2.0214    0.0458    1.2683 H   0  0  0  0  0  0  0  0  0  0  0  0
    2.4840   -1.1919    0.1198 H   0  0  0  0  0  0  0  0  0  0  0  0
    3.2144   -1.8110    2.4397 H   0  0  0  0  0  0  0  0  0  0  0  0
    0.1713   -3.2212   -0.1372 H   0  0  0  0  0  0  0  0  0  0  0  0
   -2.1714   -2.5387   -0.6744 H   0  0  0  0  0  0  0  0  0  0  0  0
    0.3797    1.7776    1.2726 H   0  0  0  0  0  0  0  0  0  0  0  0
   -1.6638    3.1434    1.0046 H   0  0  0  0  0  0  0  0  0  0  0  0
   -3.7274    2.1665    0.1069 H   0  0  0  0  0  0  0  0  0  0  0  0
    2.2667   -3.9441    2.5059 H   0  0  0  0  0  0  0  0  0  0  0  0
    2.5252   -3.5531    0.9451 H   0  0  0  0  0  0  0  0  0  0  0  0
    0.9797   -2.3057    5.1588 H   0  0  0  0  0  0  0  0  0  0  0  0
  1 13  1  0  0  0  0
  2 15  1  0  0  0  0
  2 27  1  0  0  0  0
  3 15  2  0  0  0  0
  4 10  1  0  0  0  0
  4 11  1  0  0  0  0
  4 21  1  0  0  0  0
  5  9  1  0  0  0  0
  5 25  1  0  0  0  0
  5 26  1  0  0  0  0
  6  7  1  0  0  0  0
  6  8  1  0  0  0  0
  6 11  2  0  0  0  0
  7  9  1  0  0  0  0
  7 17  1  0  0  0  0
  7 18  1  0  0  0  0
  8 10  2  0  0  0  0
  8 12  1  0  0  0  0
  9 15  1  0  0  0  0
  9 19  1  1  0  0  0
 10 13  1  0  0  0  0
 11 20  1  0  0  0  0
 12 14  2  0  0  0  0
 12 22  1  0  0  0  0
 13 16  2  0  0  0  0
 14 16  1  0  0  0  0
 14 23  1  0  0  0  0
 16 24  1  0  0  0  0
M  END
>  <PUBCHEM_COMPOUND_CID>
11737641

>  <PUBCHEM_CONFORMER_RMSD>
0.6

>  <PUBCHEM_CONFORMER_DIVERSEORDER>
1
16
19
14
7
13
11
15
18
6
5
12
8
3
17
4
9
2
10

>  <PUBCHEM_MMFF94_PARTIAL_CHARGES>
23
1 -0.11
10 -0.15
11 -0.3
12 -0.15
13 0.11
14 -0.15
15 0.66
16 -0.15
2 -0.65
20 0.15
21 0.27
22 0.15
23 0.15
24 0.15
25 0.36
26 0.36
27 0.5
3 -0.57
4 0.03
5 -0.99
6 -0.18
7 0.18
9 0.33

>  <PUBCHEM_EFFECTIVE_ROTOR_COUNT>
3

>  <PUBCHEM_PHARMACOPHORE_FEATURES>
10
1 1 hydrophobe
1 2 acceptor
1 3 acceptor
1 4 cation
1 4 donor
1 5 cation
1 5 donor
3 2 3 15 anion
5 4 6 8 10 11 rings
6 8 10 12 13 14 16 rings

>  <PUBCHEM_HEAVY_ATOM_COUNT>
16

>  <PUBCHEM_ATOM_DEF_STEREO_COUNT>
1

>  <PUBCHEM_ATOM_UDEF_STEREO_COUNT>
0

>  <PUBCHEM_BOND_DEF_STEREO_COUNT>
0

>  <PUBCHEM_BOND_UDEF_STEREO_COUNT>
0

>  <PUBCHEM_ISOTOPIC_ATOM_COUNT>
0

>  <PUBCHEM_COMPONENT_COUNT>
1

>  <PUBCHEM_CACTVS_TAUTO_COUNT>
1

>  <PUBCHEM_CONFORMER_ID>
00B31A2900000001

>  <PUBCHEM_MMFF94_ENERGY>
21.2917

>  <PUBCHEM_FEATURE_SELFOVERLAP>
50.894

>  <PUBCHEM_SHAPE_FINGERPRINT>
10062212 137 18338790109833023619
11640471 11 17823430464157310204
13538477 17 18334570282594605042
14115302 16 18335699481004429023
14993402 34 18187928339683679406
15775835 57 18260559904629766484
16945 1 18340778082358437947
17802600 8 18261385633398388900
17862501 102 18338228272007223554
18186145 218 18408608041313143461
192875 21 18410006637383965324
20645476 183 18187076252595506835
21524375 3 18333733489768519475
23402539 116 18201710734874874452
23419403 2 16536722669594432170
23557571 272 17489867120170046770
23559900 14 18272087249550677728
2748010 2 16032660553244265307
353137 74 18410576201586879465
474 4 17677053563657309804
5262128 65 17702128961242040124
537710 114 18410572907668599745
53812653 8 18412546496559348171
7364860 26 17839465487959327439
7832392 63 17907866102070327712
9981440 41 17612874108177617872

>  <PUBCHEM_SHAPE_MULTIPOLES>
313.51
6.46
2.11
1.04
0.23
0.15
0.25
0.21
1.49
0.41
-0.22
-0.24
0.17
-0.9

>  <PUBCHEM_SHAPE_SELFOVERLAP>
660.914

>  <PUBCHEM_SHAPE_VOLUME>
180.8

>  <PUBCHEM_COORDINATE_TYPE>
2
5
10

$$$$
11737641
 OpenBabel12092211553D

 27 28  0  0  1  0  0  0  0  0999 V2000
   -4.4920   -0.5490   -0.8566 Br  0  0  0  0  0  0  0  0  0  0  0  0
    1.2611   -2.9373    2.7302 O   0  0  0  0  0  0  0  0  0  0  0  0
    2.0111   -4.6126    1.3992 O   0  0  0  0  0  0  0  0  0  0  0  0
   -1.4911   -1.8961   -0.2929 N   0  0  0  0  0  0  0  0  0  0  0  0
    2.6589   -2.7650   -0.5337 N   0  0  0  0  0  0  0  0  0  0  0  0
    0.4131   -1.0857    0.5097 C   0  0  0  0  0  0  0  0  0  0  0  0
    1.8142   -0.9904    0.9673 C   0  0  0  0  0  0  0  0  0  0  0  0
   -0.5465   -0.0352    0.4958 C   0  0  0  0  0  0  0  0  0  0  0  0
    2.6113   -2.3110    0.8586 C   0  0  1  0  0  0  0  0  0  0  0  0
   -1.7324   -0.5700   -0.0122 C   0  0  0  0  0  0  0  0  0  0  0  0
   -0.1972   -2.2169    0.0190 C   0  0  0  0  0  0  0  0  0  0  0  0
   -0.5200    1.3237    0.8677 C   0  0  0  0  0  0  0  0  0  0  0  0
   -2.8977    0.1890   -0.1673 C   0  0  0  0  0  0  0  0  0  0  0  0
   -1.6782    2.0952    0.7181 C   0  0  0  0  0  0  0  0  0  0  0  0
    1.9416   -3.4173    1.6564 C   0  0  0  0  0  0  0  0  0  0  0  0
   -2.8476    1.5346    0.2083 C   0  0  0  0  0  0  0  0  0  0  0  0
    1.8257   -0.6525    2.0128 H   0  0  0  0  0  0  0  0  0  0  0  0
    2.3264   -0.2036    0.3963 H   0  0  0  0  0  0  0  0  0  0  0  0
    3.6380   -2.1787    1.2193 H   0  0  0  0  0  0  0  0  0  0  0  0
    0.1713   -3.2212   -0.1372 H   0  0  0  0  0  0  0  0  0  0  0  0
   -2.1714   -2.5387   -0.6744 H   0  0  0  0  0  0  0  0  0  0  0  0
    0.3797    1.7776    1.2726 H   0  0  0  0  0  0  0  0  0  0  0  0
   -1.6638    3.1434    1.0046 H   0  0  0  0  0  0  0  0  0  0  0  0
   -3.7274    2.1665    0.1069 H   0  0  0  0  0  0  0  0  0  0  0  0
    3.2582   -3.5867   -0.6043 H   0  0  0  0  0  0  0  0  0  0  0  0
    3.0943   -2.0465   -1.1111 H   0  0  0  0  0  0  0  0  0  0  0  0
    0.8370   -3.6564    3.2452 H   0  0  0  0  0  0  0  0  0  0  0  0
  1 13  1  0  0  0  0
  2 15  1  0  0  0  0
  2 27  1  0  0  0  0
  3 15  2  0  0  0  0
  4 10  1  0  0  0  0
  4 11  1  0  0  0  0
  4 21  1  0  0  0  0
  5  9  1  0  0  0  0
  5 25  1  0  0  0  0
  5 26  1  0  0  0  0
  6  7  1  0  0  0  0
  6  8  1  0  0  0  0
  6 11  2  0  0  0  0
  7  9  1  0  0  0  0
  7 17  1  0  0  0  0
  7 18  1  0  0  0  0
  8 10  2  0  0  0  0
  8 12  1  0  0  0  0
  9 15  1  0  0  0  0
  9 19  1  1  0  0  0
 10 13  1  0  0  0  0
 11 20  1  0  0  0  0
 12 14  2  0  0  0  0
 12 22  1  0  0  0  0
 13 16  2  0  0  0  0
 14 16  1  0  0  0  0
 14 23  1  0  0  0  0
 16 24  1  0  0  0  0
M  END
>  <PUBCHEM_COMPOUND_CID>
11737641

>  <PUBCHEM_CONFORMER_RMSD>
0.6

>  <PUBCHEM_CONFORMER_DIVERSEORDER>
1
16
19
14
7
13
11
15
18
6
5
12
8
3
17
4
9
2
10

>  <PUBCHEM_MMFF94_PARTIAL_CHARGES>
23
1 -0.11
10 -0.15
11 -0.3
12 -0.15
13 0.11
14 -0.15
15 0.66
16 -0.15
2 -0.65
20 0.15
21 0.27
22 0.15
23 0.15
24 0.15
25 0.36
26 0.36
27 0.5
3 -0.57
4 0.03
5 -0.99
6 -0.18
7 0.18
9 0.33

>  <PUBCHEM_EFFECTIVE_ROTOR_COUNT>
3

>  <PUBCHEM_PHARMACOPHORE_FEATURES>
10
1 1 hydrophobe
1 2 acceptor
1 3 acceptor
1 4 cation
1 4 donor
1 5 cation
1 5 donor
3 2 3 15 anion
5 4 6 8 10 11 rings
6 8 10 12 13 14 16 rings

>  <PUBCHEM_HEAVY_ATOM_COUNT>
16

>  <PUBCHEM_ATOM_DEF_STEREO_COUNT>
1

>  <PUBCHEM_ATOM_UDEF_STEREO_COUNT>
0

>  <PUBCHEM_BOND_DEF_STEREO_COUNT>
0

>  <PUBCHEM_BOND_UDEF_STEREO_COUNT>
0

>  <PUBCHEM_ISOTOPIC_ATOM_COUNT>
0

>  <PUBCHEM_COMPONENT_COUNT>
1

>  <PUBCHEM_CACTVS_TAUTO_COUNT>
1

>  <PUBCHEM_CONFORMER_ID>
00B31A2900000001

>  <PUBCHEM_MMFF94_ENERGY>
21.2917

>  <PUBCHEM_FEATURE_SELFOVERLAP>
50.894

>  <PUBCHEM_SHAPE_FINGERPRINT>
10062212 137 18338790109833023619
11640471 11 17823430464157310204
13538477 17 18334570282594605042
14115302 16 18335699481004429023
14993402 34 18187928339683679406
15775835 57 18260559904629766484
16945 1 18340778082358437947
17802600 8 18261385633398388900
17862501 102 18338228272007223554
18186145 218 18408608041313143461
192875 21 18410006637383965324
20645476 183 18187076252595506835
21524375 3 18333733489768519475
23402539 116 18201710734874874452
23419403 2 16536722669594432170
23557571 272 17489867120170046770
23559900 14 18272087249550677728
2748010 2 16032660553244265307
353137 74 18410576201586879465
474 4 17677053563657309804
5262128 65 17702128961242040124
537710 114 18410572907668599745
53812653 8 18412546496559348171
7364860 26 17839465487959327439
7832392 63 17907866102070327712
9981440 41 17612874108177617872

>  <PUBCHEM_SHAPE_MULTIPOLES>
313.51
6.46
2.11
1.04
0.23
0.15
0.25
0.21
1.49
0.41
-0.22
-0.24
0.17
-0.9

>  <PUBCHEM_SHAPE_SELFOVERLAP>
660.914

>  <PUBCHEM_SHAPE_VOLUME>
180.8

>  <PUBCHEM_COORDINATE_TYPE>
2
5
10

$$$$
11737641
 OpenBabel12092211553D

 27 28  0  0  1  0  0  0  0  0999 V2000
   -4.4920   -0.5490   -0.8566 Br  0  0  0  0  0  0  0  0  0  0  0  0
    4.6575    1.3000    0.5384 O   0  0  0  0  0  0  0  0  0  0  0  0
    4.3726   -0.3250    2.0936 O   0  0  0  0  0  0  0  0  0  0  0  0
   -1.4911   -1.8961   -0.2929 N   0  0  0  0  0  0  0  0  0  0  0  0
    2.4523    0.7782   -0.6392 N   0  0  0  0  0  0  0  0  0  0  0  0
    0.4131   -1.0857    0.5097 C   0  0  0  0  0  0  0  0  0  0  0  0
    1.8142   -0.9904    0.9673 C   0  0  0  0  0  0  0  0  0  0  0  0
   -0.5465   -0.0352    0.4958 C   0  0  0  0  0  0  0  0  0  0  0  0
    2.4530    0.4050    0.7778 C   0  0  1  0  0  0  0  0  0  0  0  0
   -1.7324   -0.5700   -0.0122 C   0  0  0  0  0  0  0  0  0  0  0  0
   -0.1972   -2.2169    0.0190 C   0  0  0  0  0  0  0  0  0  0  0  0
   -0.5200    1.3237    0.8677 C   0  0  0  0  0  0  0  0  0  0  0  0
   -2.8977    0.1890   -0.1673 C   0  0  0  0  0  0  0  0  0  0  0  0
   -1.6782    2.0952    0.7181 C   0  0  0  0  0  0  0  0  0  0  0  0
    3.9040    0.4044    1.2288 C   0  0  0  0  0  0  0  0  0  0  0  0
   -2.8476    1.5346    0.2083 C   0  0  0  0  0  0  0  0  0  0  0  0
    2.4169   -1.7342    0.4280 H   0  0  0  0  0  0  0  0  0  0  0  0
    1.8671   -1.2783    2.0264 H   0  0  0  0  0  0  0  0  0  0  0  0
    1.9018    1.1670    1.3410 H   0  0  0  0  0  0  0  0  0  0  0  0
    0.1713   -3.2212   -0.1372 H   0  0  0  0  0  0  0  0  0  0  0  0
   -2.1714   -2.5387   -0.6744 H   0  0  0  0  0  0  0  0  0  0  0  0
    0.3797    1.7776    1.2726 H   0  0  0  0  0  0  0  0  0  0  0  0
   -1.6638    3.1434    1.0046 H   0  0  0  0  0  0  0  0  0  0  0  0
   -3.7274    2.1665    0.1069 H   0  0  0  0  0  0  0  0  0  0  0  0
    2.7954    1.7329   -0.7407 H   0  0  0  0  0  0  0  0  0  0  0  0
    1.4949    0.7826   -0.9893 H   0  0  0  0  0  0  0  0  0  0  0  0
    5.5944    1.2900    0.8288 H   0  0  0  0  0  0  0  0  0  0  0  0
  1 13  1  0  0  0  0
  2 15  1  0  0  0  0
  2 27  1  0  0  0  0
  3 15  2  0  0  0  0
  4 10  1  0  0  0  0
  4 11  1  0  0  0  0
  4 21  1  0  0  0  0
  5  9  1  0  0  0  0
  5 25  1  0  0  0  0
  5 26  1  0  0  0  0
  6  7  1  0  0  0  0
  6  8  1  0  0  0  0
  6 11  2  0  0  0  0
  7  9  1  0  0  0  0
  7 17  1  0  0  0  0
  7 18  1  0  0  0  0
  8 10  2  0  0  0  0
  8 12  1  0  0  0  0
  9 15  1  0  0  0  0
  9 19  1  1  0  0  0
 10 13  1  0  0  0  0
 11 20  1  0  0  0  0
 12 14  2  0  0  0  0
 12 22  1  0  0  0  0
 13 16  2  0  0  0  0
 14 16  1  0  0  0  0
 14 23  1  0  0  0  0
 16 24  1  0  0  0  0
M  END
>  <PUBCHEM_COMPOUND_CID>
11737641

>  <PUBCHEM_CONFORMER_RMSD>
0.6

>  <PUBCHEM_CONFORMER_DIVERSEORDER>
1
16
19
14
7
13
11
15
18
6
5
12
8
3
17
4
9
2
10

>  <PUBCHEM_MMFF94_PARTIAL_CHARGES>
23
1 -0.11
10 -0.15
11 -0.3
12 -0.15
13 0.11
14 -0.15
15 0.66
16 -0.15
2 -0.65
20 0.15
21 0.27
22 0.15
23 0.15
24 0.15
25 0.36
26 0.36
27 0.5
3 -0.57
4 0.03
5 -0.99
6 -0.18
7 0.18
9 0.33

>  <PUBCHEM_EFFECTIVE_ROTOR_COUNT>
3

>  <PUBCHEM_PHARMACOPHORE_FEATURES>
10
1 1 hydrophobe
1 2 acceptor
1 3 acceptor
1 4 cation
1 4 donor
1 5 cation
1 5 donor
3 2 3 15 anion
5 4 6 8 10 11 rings
6 8 10 12 13 14 16 rings

>  <PUBCHEM_HEAVY_ATOM_COUNT>
16

>  <PUBCHEM_ATOM_DEF_STEREO_COUNT>
1

>  <PUBCHEM_ATOM_UDEF_STEREO_COUNT>
0

>  <PUBCHEM_BOND_DEF_STEREO_COUNT>
0

>  <PUBCHEM_BOND_UDEF_STEREO_COUNT>
0

>  <PUBCHEM_ISOTOPIC_ATOM_COUNT>
0

>  <PUBCHEM_COMPONENT_COUNT>
1

>  <PUBCHEM_CACTVS_TAUTO_COUNT>
1

>  <PUBCHEM_CONFORMER_ID>
00B31A2900000001

>  <PUBCHEM_MMFF94_ENERGY>
21.2917

>  <PUBCHEM_FEATURE_SELFOVERLAP>
50.894

>  <PUBCHEM_SHAPE_FINGERPRINT>
10062212 137 18338790109833023619
11640471 11 17823430464157310204
13538477 17 18334570282594605042
14115302 16 18335699481004429023
14993402 34 18187928339683679406
15775835 57 18260559904629766484
16945 1 18340778082358437947
17802600 8 18261385633398388900
17862501 102 18338228272007223554
18186145 218 18408608041313143461
192875 21 18410006637383965324
20645476 183 18187076252595506835
21524375 3 18333733489768519475
23402539 116 18201710734874874452
23419403 2 16536722669594432170
23557571 272 17489867120170046770
23559900 14 18272087249550677728
2748010 2 16032660553244265307
353137 74 18410576201586879465
474 4 17677053563657309804
5262128 65 17702128961242040124
537710 114 18410572907668599745
53812653 8 18412546496559348171
7364860 26 17839465487959327439
7832392 63 17907866102070327712
9981440 41 17612874108177617872

>  <PUBCHEM_SHAPE_MULTIPOLES>
313.51
6.46
2.11
1.04
0.23
0.15
0.25
0.21
1.49
0.41
-0.22
-0.24
0.17
-0.9

>  <PUBCHEM_SHAPE_SELFOVERLAP>
660.914

>  <PUBCHEM_SHAPE_VOLUME>
180.8

>  <PUBCHEM_COORDINATE_TYPE>
2
5
10

$$$$
11737641
 OpenBabel12092211553D

 27 28  0  0  1  0  0  0  0  0999 V2000
   -4.4920   -0.5490   -0.8566 Br  0  0  0  0  0  0  0  0  0  0  0  0
    1.0253   -4.0195    2.5144 O   0  0  0  0  0  0  0  0  0  0  0  0
    1.3348   -2.1421    3.7475 O   0  0  0  0  0  0  0  0  0  0  0  0
   -1.4911   -1.8961   -0.2929 N   0  0  0  0  0  0  0  0  0  0  0  0
    2.3474   -3.3681    0.5455 N   0  0  0  0  0  0  0  0  0  0  0  0
    0.4131   -1.0857    0.5097 C   0  0  0  0  0  0  0  0  0  0  0  0
    1.8142   -0.9904    0.9673 C   0  0  0  0  0  0  0  0  0  0  0  0
   -0.5465   -0.0352    0.4958 C   0  0  0  0  0  0  0  0  0  0  0  0
    2.3844   -2.3036    1.5517 C   0  0  1  0  0  0  0  0  0  0  0  0
   -1.7324   -0.5700   -0.0122 C   0  0  0  0  0  0  0  0  0  0  0  0
   -0.1972   -2.2169    0.0190 C   0  0  0  0  0  0  0  0  0  0  0  0
   -0.5200    1.3237    0.8677 C   0  0  0  0  0  0  0  0  0  0  0  0
   -2.8977    0.1890   -0.1673 C   0  0  0  0  0  0  0  0  0  0  0  0
   -1.6782    2.0952    0.7181 C   0  0  0  0  0  0  0  0  0  0  0  0
    1.5489   -2.7836    2.7266 C   0  0  0  0  0  0  0  0  0  0  0  0
   -2.8476    1.5346    0.2083 C   0  0  0  0  0  0  0  0  0  0  0  0
    1.8881   -0.2006    1.7276 H   0  0  0  0  0  0  0  0  0  0  0  0
    2.4438   -0.6560    0.1311 H   0  0  0  0  0  0  0  0  0  0  0  0
    3.4215   -2.1676    1.8799 H   0  0  0  0  0  0  0  0  0  0  0  0
    0.1713   -3.2212   -0.1372 H   0  0  0  0  0  0  0  0  0  0  0  0
   -2.1714   -2.5387   -0.6744 H   0  0  0  0  0  0  0  0  0  0  0  0
    0.3797    1.7776    1.2726 H   0  0  0  0  0  0  0  0  0  0  0  0
   -1.6638    3.1434    1.0046 H   0  0  0  0  0  0  0  0  0  0  0  0
   -3.7274    2.1665    0.1069 H   0  0  0  0  0  0  0  0  0  0  0  0
    2.8042   -4.2018    0.9140 H   0  0  0  0  0  0  0  0  0  0  0  0
    2.8901   -3.0847   -0.2696 H   0  0  0  0  0  0  0  0  0  0  0  0
    0.4813   -4.3209    3.2730 H   0  0  0  0  0  0  0  0  0  0  0  0
  1 13  1  0  0  0  0
  2 15  1  0  0  0  0
  2 27  1  0  0  0  0
  3 15  2  0  0  0  0
  4 10  1  0  0  0  0
  4 11  1  0  0  0  0
  4 21  1  0  0  0  0
  5  9  1  0  0  0  0
  5 25  1  0  0  0  0
  5 26  1  0  0  0  0
  6  7  1  0  0  0  0
  6  8  1  0  0  0  0
  6 11  2  0  0  0  0
  7  9  1  0  0  0  0
  7 17  1  0  0  0  0
  7 18  1  0  0  0  0
  8 10  2  0  0  0  0
  8 12  1  0  0  0  0
  9 15  1  0  0  0  0
  9 19  1  1  0  0  0
 10 13  1  0  0  0  0
 11 20  1  0  0  0  0
 12 14  2  0  0  0  0
 12 22  1  0  0  0  0
 13 16  2  0  0  0  0
 14 16  1  0  0  0  0
 14 23  1  0  0  0  0
 16 24  1  0  0  0  0
M  END
>  <PUBCHEM_COMPOUND_CID>
11737641

>  <PUBCHEM_CONFORMER_RMSD>
0.6

>  <PUBCHEM_CONFORMER_DIVERSEORDER>
1
16
19
14
7
13
11
15
18
6
5
12
8
3
17
4
9
2
10

>  <PUBCHEM_MMFF94_PARTIAL_CHARGES>
23
1 -0.11
10 -0.15
11 -0.3
12 -0.15
13 0.11
14 -0.15
15 0.66
16 -0.15
2 -0.65
20 0.15
21 0.27
22 0.15
23 0.15
24 0.15
25 0.36
26 0.36
27 0.5
3 -0.57
4 0.03
5 -0.99
6 -0.18
7 0.18
9 0.33

>  <PUBCHEM_EFFECTIVE_ROTOR_COUNT>
3

>  <PUBCHEM_PHARMACOPHORE_FEATURES>
10
1 1 hydrophobe
1 2 acceptor
1 3 acceptor
1 4 cation
1 4 donor
1 5 cation
1 5 donor
3 2 3 15 anion
5 4 6 8 10 11 rings
6 8 10 12 13 14 16 rings

>  <PUBCHEM_HEAVY_ATOM_COUNT>
16

>  <PUBCHEM_ATOM_DEF_STEREO_COUNT>
1

>  <PUBCHEM_ATOM_UDEF_STEREO_COUNT>
0

>  <PUBCHEM_BOND_DEF_STEREO_COUNT>
0

>  <PUBCHEM_BOND_UDEF_STEREO_COUNT>
0

>  <PUBCHEM_ISOTOPIC_ATOM_COUNT>
0

>  <PUBCHEM_COMPONENT_COUNT>
1

>  <PUBCHEM_CACTVS_TAUTO_COUNT>
1

>  <PUBCHEM_CONFORMER_ID>
00B31A2900000001

>  <PUBCHEM_MMFF94_ENERGY>
21.2917

>  <PUBCHEM_FEATURE_SELFOVERLAP>
50.894

>  <PUBCHEM_SHAPE_FINGERPRINT>
10062212 137 18338790109833023619
11640471 11 17823430464157310204
13538477 17 18334570282594605042
14115302 16 18335699481004429023
14993402 34 18187928339683679406
15775835 57 18260559904629766484
16945 1 18340778082358437947
17802600 8 18261385633398388900
17862501 102 18338228272007223554
18186145 218 18408608041313143461
192875 21 18410006637383965324
20645476 183 18187076252595506835
21524375 3 18333733489768519475
23402539 116 18201710734874874452
23419403 2 16536722669594432170
23557571 272 17489867120170046770
23559900 14 18272087249550677728
2748010 2 16032660553244265307
353137 74 18410576201586879465
474 4 17677053563657309804
5262128 65 17702128961242040124
537710 114 18410572907668599745
53812653 8 18412546496559348171
7364860 26 17839465487959327439
7832392 63 17907866102070327712
9981440 41 17612874108177617872

>  <PUBCHEM_SHAPE_MULTIPOLES>
313.51
6.46
2.11
1.04
0.23
0.15
0.25
0.21
1.49
0.41
-0.22
-0.24
0.17
-0.9

>  <PUBCHEM_SHAPE_SELFOVERLAP>
660.914

>  <PUBCHEM_SHAPE_VOLUME>
180.8

>  <PUBCHEM_COORDINATE_TYPE>
2
5
10

$$$$
11737641
 OpenBabel12092211553D

 27 28  0  0  1  0  0  0  0  0999 V2000
   -4.4920   -0.5490   -0.8566 Br  0  0  0  0  0  0  0  0  0  0  0  0
    3.0516   -2.8458   -1.9552 O   0  0  0  0  0  0  0  0  0  0  0  0
    2.1578   -3.6606   -0.0373 O   0  0  0  0  0  0  0  0  0  0  0  0
   -1.4911   -1.8961   -0.2929 N   0  0  0  0  0  0  0  0  0  0  0  0
    2.7340   -0.4108   -1.2539 N   0  0  0  0  0  0  0  0  0  0  0  0
    0.4131   -1.0857    0.5097 C   0  0  0  0  0  0  0  0  0  0  0  0
    1.8142   -0.9904    0.9673 C   0  0  0  0  0  0  0  0  0  0  0  0
   -0.5465   -0.0352    0.4958 C   0  0  0  0  0  0  0  0  0  0  0  0
    2.8633   -1.3270   -0.1178 C   0  0  1  0  0  0  0  0  0  0  0  0
   -1.7324   -0.5700   -0.0122 C   0  0  0  0  0  0  0  0  0  0  0  0
   -0.1972   -2.2169    0.0190 C   0  0  0  0  0  0  0  0  0  0  0  0
   -0.5200    1.3237    0.8677 C   0  0  0  0  0  0  0  0  0  0  0  0
   -2.8977    0.1890   -0.1673 C   0  0  0  0  0  0  0  0  0  0  0  0
   -1.6782    2.0952    0.7181 C   0  0  0  0  0  0  0  0  0  0  0  0
    2.6519   -2.7300   -0.6615 C   0  0  0  0  0  0  0  0  0  0  0  0
   -2.8476    1.5346    0.2083 C   0  0  0  0  0  0  0  0  0  0  0  0
    1.9569   -1.6657    1.8222 H   0  0  0  0  0  0  0  0  0  0  0  0
    1.9979    0.0211    1.3553 H   0  0  0  0  0  0  0  0  0  0  0  0
    3.8803   -1.2464    0.2834 H   0  0  0  0  0  0  0  0  0  0  0  0
    0.1713   -3.2212   -0.1372 H   0  0  0  0  0  0  0  0  0  0  0  0
   -2.1714   -2.5387   -0.6744 H   0  0  0  0  0  0  0  0  0  0  0  0
    0.3797    1.7776    1.2726 H   0  0  0  0  0  0  0  0  0  0  0  0
   -1.6638    3.1434    1.0046 H   0  0  0  0  0  0  0  0  0  0  0  0
   -3.7274    2.1665    0.1069 H   0  0  0  0  0  0  0  0  0  0  0  0
    3.4843   -0.5869   -1.9213 H   0  0  0  0  0  0  0  0  0  0  0  0
    2.8597    0.5486   -0.9332 H   0  0  0  0  0  0  0  0  0  0  0  0
    2.9061   -3.7514   -2.3028 H   0  0  0  0  0  0  0  0  0  0  0  0
  1 13  1  0  0  0  0
  2 15  1  0  0  0  0
  2 27  1  0  0  0  0
  3 15  2  0  0  0  0
  4 10  1  0  0  0  0
  4 11  1  0  0  0  0
  4 21  1  0  0  0  0
  5  9  1  0  0  0  0
  5 25  1  0  0  0  0
  5 26  1  0  0  0  0
  6  7  1  0  0  0  0
  6  8  1  0  0  0  0
  6 11  2  0  0  0  0
  7  9  1  0  0  0  0
  7 17  1  0  0  0  0
  7 18  1  0  0  0  0
  8 10  2  0  0  0  0
  8 12  1  0  0  0  0
  9 15  1  0  0  0  0
  9 19  1  1  0  0  0
 10 13  1  0  0  0  0
 11 20  1  0  0  0  0
 12 14  2  0  0  0  0
 12 22  1  0  0  0  0
 13 16  2  0  0  0  0
 14 16  1  0  0  0  0
 14 23  1  0  0  0  0
 16 24  1  0  0  0  0
M  END
>  <PUBCHEM_COMPOUND_CID>
11737641

>  <PUBCHEM_CONFORMER_RMSD>
0.6

>  <PUBCHEM_CONFORMER_DIVERSEORDER>
1
16
19
14
7
13
11
15
18
6
5
12
8
3
17
4
9
2
10

>  <PUBCHEM_MMFF94_PARTIAL_CHARGES>
23
1 -0.11
10 -0.15
11 -0.3
12 -0.15
13 0.11
14 -0.15
15 0.66
16 -0.15
2 -0.65
20 0.15
21 0.27
22 0.15
23 0.15
24 0.15
25 0.36
26 0.36
27 0.5
3 -0.57
4 0.03
5 -0.99
6 -0.18
7 0.18
9 0.33

>  <PUBCHEM_EFFECTIVE_ROTOR_COUNT>
3

>  <PUBCHEM_PHARMACOPHORE_FEATURES>
10
1 1 hydrophobe
1 2 acceptor
1 3 acceptor
1 4 cation
1 4 donor
1 5 cation
1 5 donor
3 2 3 15 anion
5 4 6 8 10 11 rings
6 8 10 12 13 14 16 rings

>  <PUBCHEM_HEAVY_ATOM_COUNT>
16

>  <PUBCHEM_ATOM_DEF_STEREO_COUNT>
1

>  <PUBCHEM_ATOM_UDEF_STEREO_COUNT>
0

>  <PUBCHEM_BOND_DEF_STEREO_COUNT>
0

>  <PUBCHEM_BOND_UDEF_STEREO_COUNT>
0

>  <PUBCHEM_ISOTOPIC_ATOM_COUNT>
0

>  <PUBCHEM_COMPONENT_COUNT>
1

>  <PUBCHEM_CACTVS_TAUTO_COUNT>
1

>  <PUBCHEM_CONFORMER_ID>
00B31A2900000001

>  <PUBCHEM_MMFF94_ENERGY>
21.2917

>  <PUBCHEM_FEATURE_SELFOVERLAP>
50.894

>  <PUBCHEM_SHAPE_FINGERPRINT>
10062212 137 18338790109833023619
11640471 11 17823430464157310204
13538477 17 18334570282594605042
14115302 16 18335699481004429023
14993402 34 18187928339683679406
15775835 57 18260559904629766484
16945 1 18340778082358437947
17802600 8 18261385633398388900
17862501 102 18338228272007223554
18186145 218 18408608041313143461
192875 21 18410006637383965324
20645476 183 18187076252595506835
21524375 3 18333733489768519475
23402539 116 18201710734874874452
23419403 2 16536722669594432170
23557571 272 17489867120170046770
23559900 14 18272087249550677728
2748010 2 16032660553244265307
353137 74 18410576201586879465
474 4 17677053563657309804
5262128 65 17702128961242040124
537710 114 18410572907668599745
53812653 8 18412546496559348171
7364860 26 17839465487959327439
7832392 63 17907866102070327712
9981440 41 17612874108177617872

>  <PUBCHEM_SHAPE_MULTIPOLES>
313.51
6.46
2.11
1.04
0.23
0.15
0.25
0.21
1.49
0.41
-0.22
-0.24
0.17
-0.9

>  <PUBCHEM_SHAPE_SELFOVERLAP>
660.914

>  <PUBCHEM_SHAPE_VOLUME>
180.8

>  <PUBCHEM_COORDINATE_TYPE>
2
5
10

$$$$
11737641
 OpenBabel12092211553D

 27 28  0  0  1  0  0  0  0  0999 V2000
   -4.4920   -0.5490   -0.8566 Br  0  0  0  0  0  0  0  0  0  0  0  0
    1.9550    0.3788    4.1713 O   0  0  0  0  0  0  0  0  0  0  0  0
   -0.0356   -0.2878    3.3145 O   0  0  0  0  0  0  0  0  0  0  0  0
   -1.4911   -1.8961   -0.2929 N   0  0  0  0  0  0  0  0  0  0  0  0
    1.5716   -2.6617    2.7739 N   0  0  0  0  0  0  0  0  0  0  0  0
    0.4131   -1.0857    0.5097 C   0  0  0  0  0  0  0  0  0  0  0  0
    1.8142   -0.9904    0.9673 C   0  0  0  0  0  0  0  0  0  0  0  0
   -0.5465   -0.0352    0.4958 C   0  0  0  0  0  0  0  0  0  0  0  0
    2.0166   -1.2994    2.4689 C   0  0  1  0  0  0  0  0  0  0  0  0
   -1.7324   -0.5700   -0.0122 C   0  0  0  0  0  0  0  0  0  0  0  0
   -0.1972   -2.2169    0.0190 C   0  0  0  0  0  0  0  0  0  0  0  0
   -0.5200    1.3237    0.8677 C   0  0  0  0  0  0  0  0  0  0  0  0
   -2.8977    0.1890   -0.1673 C   0  0  0  0  0  0  0  0  0  0  0  0
   -1.6782    2.0952    0.7181 C   0  0  0  0  0  0  0  0  0  0  0  0
    1.1864   -0.3647    3.3328 C   0  0  0  0  0  0  0  0  0  0  0  0
   -2.8476    1.5346    0.2083 C   0  0  0  0  0  0  0  0  0  0  0  0
    2.1897    0.0208    0.7580 H   0  0  0  0  0  0  0  0  0  0  0  0
    2.4361   -1.6675    0.3654 H   0  0  0  0  0  0  0  0  0  0  0  0
    3.0723   -1.2047    2.7487 H   0  0  0  0  0  0  0  0  0  0  0  0
    0.1713   -3.2212   -0.1372 H   0  0  0  0  0  0  0  0  0  0  0  0
   -2.1714   -2.5387   -0.6744 H   0  0  0  0  0  0  0  0  0  0  0  0
    0.3797    1.7776    1.2726 H   0  0  0  0  0  0  0  0  0  0  0  0
   -1.6638    3.1434    1.0046 H   0  0  0  0  0  0  0  0  0  0  0  0
   -3.7274    2.1665    0.1069 H   0  0  0  0  0  0  0  0  0  0  0  0
    1.7899   -2.8825    3.7450 H   0  0  0  0  0  0  0  0  0  0  0  0
    2.0975   -3.3261    2.2073 H   0  0  0  0  0  0  0  0  0  0  0  0
    1.4133    0.9749    4.7313 H   0  0  0  0  0  0  0  0  0  0  0  0
  1 13  1  0  0  0  0
  2 15  1  0  0  0  0
  2 27  1  0  0  0  0
  3 15  2  0  0  0  0
  4 10  1  0  0  0  0
  4 11  1  0  0  0  0
  4 21  1  0  0  0  0
  5  9  1  0  0  0  0
  5 25  1  0  0  0  0
  5 26  1  0  0  0  0
  6  7  1  0  0  0  0
  6  8  1  0  0  0  0
  6 11  2  0  0  0  0
  7  9  1  0  0  0  0
  7 17  1  0  0  0  0
  7 18  1  0  0  0  0
  8 10  2  0  0  0  0
  8 12  1  0  0  0  0
  9 15  1  0  0  0  0
  9 19  1  1  0  0  0
 10 13  1  0  0  0  0
 11 20  1  0  0  0  0
 12 14  2  0  0  0  0
 12 22  1  0  0  0  0
 13 16  2  0  0  0  0
 14 16  1  0  0  0  0
 14 23  1  0  0  0  0
 16 24  1  0  0  0  0
M  END
>  <PUBCHEM_COMPOUND_CID>
11737641

>  <PUBCHEM_CONFORMER_RMSD>
0.6

>  <PUBCHEM_CONFORMER_DIVERSEORDER>
1
16
19
14
7
13
11
15
18
6
5
12
8
3
17
4
9
2
10

>  <PUBCHEM_MMFF94_PARTIAL_CHARGES>
23
1 -0.11
10 -0.15
11 -0.3
12 -0.15
13 0.11
14 -0.15
15 0.66
16 -0.15
2 -0.65
20 0.15
21 0.27
22 0.15
23 0.15
24 0.15
25 0.36
26 0.36
27 0.5
3 -0.57
4 0.03
5 -0.99
6 -0.18
7 0.18
9 0.33

>  <PUBCHEM_EFFECTIVE_ROTOR_COUNT>
3

>  <PUBCHEM_PHARMACOPHORE_FEATURES>
10
1 1 hydrophobe
1 2 acceptor
1 3 acceptor
1 4 cation
1 4 donor
1 5 cation
1 5 donor
3 2 3 15 anion
5 4 6 8 10 11 rings
6 8 10 12 13 14 16 rings

>  <PUBCHEM_HEAVY_ATOM_COUNT>
16

>  <PUBCHEM_ATOM_DEF_STEREO_COUNT>
1

>  <PUBCHEM_ATOM_UDEF_STEREO_COUNT>
0

>  <PUBCHEM_BOND_DEF_STEREO_COUNT>
0

>  <PUBCHEM_BOND_UDEF_STEREO_COUNT>
0

>  <PUBCHEM_ISOTOPIC_ATOM_COUNT>
0

>  <PUBCHEM_COMPONENT_COUNT>
1

>  <PUBCHEM_CACTVS_TAUTO_COUNT>
1

>  <PUBCHEM_CONFORMER_ID>
00B31A2900000001

>  <PUBCHEM_MMFF94_ENERGY>
21.2917

>  <PUBCHEM_FEATURE_SELFOVERLAP>
50.894

>  <PUBCHEM_SHAPE_FINGERPRINT>
10062212 137 18338790109833023619
11640471 11 17823430464157310204
13538477 17 18334570282594605042
14115302 16 18335699481004429023
14993402 34 18187928339683679406
15775835 57 18260559904629766484
16945 1 18340778082358437947
17802600 8 18261385633398388900
17862501 102 18338228272007223554
18186145 218 18408608041313143461
192875 21 18410006637383965324
20645476 183 18187076252595506835
21524375 3 18333733489768519475
23402539 116 18201710734874874452
23419403 2 16536722669594432170
23557571 272 17489867120170046770
23559900 14 18272087249550677728
2748010 2 16032660553244265307
353137 74 18410576201586879465
474 4 17677053563657309804
5262128 65 17702128961242040124
537710 114 18410572907668599745
53812653 8 18412546496559348171
7364860 26 17839465487959327439
7832392 63 17907866102070327712
9981440 41 17612874108177617872

>  <PUBCHEM_SHAPE_MULTIPOLES>
313.51
6.46
2.11
1.04
0.23
0.15
0.25
0.21
1.49
0.41
-0.22
-0.24
0.17
-0.9

>  <PUBCHEM_SHAPE_SELFOVERLAP>
660.914

>  <PUBCHEM_SHAPE_VOLUME>
180.8

>  <PUBCHEM_COORDINATE_TYPE>
2
5
10

$$$$
11737641
 OpenBabel12092211553D

 27 28  0  0  1  0  0  0  0  0999 V2000
   -4.4920   -0.5490   -0.8566 Br  0  0  0  0  0  0  0  0  0  0  0  0
    1.9862   -2.2771    3.9094 O   0  0  0  0  0  0  0  0  0  0  0  0
    0.6023   -3.5565    2.6489 O   0  0  0  0  0  0  0  0  0  0  0  0
   -1.4911   -1.8961   -0.2929 N   0  0  0  0  0  0  0  0  0  0  0  0
    2.3474   -3.3681    0.5455 N   0  0  0  0  0  0  0  0  0  0  0  0
    0.4131   -1.0857    0.5097 C   0  0  0  0  0  0  0  0  0  0  0  0
    1.8142   -0.9904    0.9673 C   0  0  0  0  0  0  0  0  0  0  0  0
   -0.5465   -0.0352    0.4958 C   0  0  0  0  0  0  0  0  0  0  0  0
    2.3844   -2.3036    1.5517 C   0  0  1  0  0  0  0  0  0  0  0  0
   -1.7324   -0.5700   -0.0122 C   0  0  0  0  0  0  0  0  0  0  0  0
   -0.1972   -2.2169    0.0190 C   0  0  0  0  0  0  0  0  0  0  0  0
   -0.5200    1.3237    0.8677 C   0  0  0  0  0  0  0  0  0  0  0  0
   -2.8977    0.1890   -0.1673 C   0  0  0  0  0  0  0  0  0  0  0  0
   -1.6782    2.0952    0.7181 C   0  0  0  0  0  0  0  0  0  0  0  0
    1.5489   -2.7836    2.7266 C   0  0  0  0  0  0  0  0  0  0  0  0
   -2.8476    1.5346    0.2083 C   0  0  0  0  0  0  0  0  0  0  0  0
    1.8881   -0.2006    1.7276 H   0  0  0  0  0  0  0  0  0  0  0  0
    2.4438   -0.6560    0.1311 H   0  0  0  0  0  0  0  0  0  0  0  0
    3.4215   -2.1676    1.8799 H   0  0  0  0  0  0  0  0  0  0  0  0
    0.1713   -3.2212   -0.1372 H   0  0  0  0  0  0  0  0  0  0  0  0
   -2.1714   -2.5387   -0.6744 H   0  0  0  0  0  0  0  0  0  0  0  0
    0.3797    1.7776    1.2726 H   0  0  0  0  0  0  0  0  0  0  0  0
   -1.6638    3.1434    1.0046 H   0  0  0  0  0  0  0  0  0  0  0  0
   -3.7274    2.1665    0.1069 H   0  0  0  0  0  0  0  0  0  0  0  0
    2.8042   -4.2018    0.9140 H   0  0  0  0  0  0  0  0  0  0  0  0
    2.8901   -3.0847   -0.2696 H   0  0  0  0  0  0  0  0  0  0  0  0
    1.4476   -2.5959    4.6648 H   0  0  0  0  0  0  0  0  0  0  0  0
  1 13  1  0  0  0  0
  2 15  1  0  0  0  0
  2 27  1  0  0  0  0
  3 15  2  0  0  0  0
  4 10  1  0  0  0  0
  4 11  1  0  0  0  0
  4 21  1  0  0  0  0
  5  9  1  0  0  0  0
  5 25  1  0  0  0  0
  5 26  1  0  0  0  0
  6  7  1  0  0  0  0
  6  8  1  0  0  0  0
  6 11  2  0  0  0  0
  7  9  1  0  0  0  0
  7 17  1  0  0  0  0
  7 18  1  0  0  0  0
  8 10  2  0  0  0  0
  8 12  1  0  0  0  0
  9 15  1  0  0  0  0
  9 19  1  1  0  0  0
 10 13  1  0  0  0  0
 11 20  1  0  0  0  0
 12 14  2  0  0  0  0
 12 22  1  0  0  0  0
 13 16  2  0  0  0  0
 14 16  1  0  0  0  0
 14 23  1  0  0  0  0
 16 24  1  0  0  0  0
M  END
>  <PUBCHEM_COMPOUND_CID>
11737641

>  <PUBCHEM_CONFORMER_RMSD>
0.6

>  <PUBCHEM_CONFORMER_DIVERSEORDER>
1
16
19
14
7
13
11
15
18
6
5
12
8
3
17
4
9
2
10

>  <PUBCHEM_MMFF94_PARTIAL_CHARGES>
23
1 -0.11
10 -0.15
11 -0.3
12 -0.15
13 0.11
14 -0.15
15 0.66
16 -0.15
2 -0.65
20 0.15
21 0.27
22 0.15
23 0.15
24 0.15
25 0.36
26 0.36
27 0.5
3 -0.57
4 0.03
5 -0.99
6 -0.18
7 0.18
9 0.33

>  <PUBCHEM_EFFECTIVE_ROTOR_COUNT>
3

>  <PUBCHEM_PHARMACOPHORE_FEATURES>
10
1 1 hydrophobe
1 2 acceptor
1 3 acceptor
1 4 cation
1 4 donor
1 5 cation
1 5 donor
3 2 3 15 anion
5 4 6 8 10 11 rings
6 8 10 12 13 14 16 rings

>  <PUBCHEM_HEAVY_ATOM_COUNT>
16

>  <PUBCHEM_ATOM_DEF_STEREO_COUNT>
1

>  <PUBCHEM_ATOM_UDEF_STEREO_COUNT>
0

>  <PUBCHEM_BOND_DEF_STEREO_COUNT>
0

>  <PUBCHEM_BOND_UDEF_STEREO_COUNT>
0

>  <PUBCHEM_ISOTOPIC_ATOM_COUNT>
0

>  <PUBCHEM_COMPONENT_COUNT>
1

>  <PUBCHEM_CACTVS_TAUTO_COUNT>
1

>  <PUBCHEM_CONFORMER_ID>
00B31A2900000001

>  <PUBCHEM_MMFF94_ENERGY>
21.2917

>  <PUBCHEM_FEATURE_SELFOVERLAP>
50.894

>  <PUBCHEM_SHAPE_FINGERPRINT>
10062212 137 18338790109833023619
11640471 11 17823430464157310204
13538477 17 18334570282594605042
14115302 16 18335699481004429023
14993402 34 18187928339683679406
15775835 57 18260559904629766484
16945 1 18340778082358437947
17802600 8 18261385633398388900
17862501 102 18338228272007223554
18186145 218 18408608041313143461
192875 21 18410006637383965324
20645476 183 18187076252595506835
21524375 3 18333733489768519475
23402539 116 18201710734874874452
23419403 2 16536722669594432170
23557571 272 17489867120170046770
23559900 14 18272087249550677728
2748010 2 16032660553244265307
353137 74 18410576201586879465
474 4 17677053563657309804
5262128 65 17702128961242040124
537710 114 18410572907668599745
53812653 8 18412546496559348171
7364860 26 17839465487959327439
7832392 63 17907866102070327712
9981440 41 17612874108177617872

>  <PUBCHEM_SHAPE_MULTIPOLES>
313.51
6.46
2.11
1.04
0.23
0.15
0.25
0.21
1.49
0.41
-0.22
-0.24
0.17
-0.9

>  <PUBCHEM_SHAPE_SELFOVERLAP>
660.914

>  <PUBCHEM_SHAPE_VOLUME>
180.8

>  <PUBCHEM_COORDINATE_TYPE>
2
5
10

$$$$
11737641
 OpenBabel12092211553D

 27 28  0  0  1  0  0  0  0  0999 V2000
   -4.4920   -0.5490   -0.8566 Br  0  0  0  0  0  0  0  0  0  0  0  0
    4.0909   -1.2071    2.3786 O   0  0  0  0  0  0  0  0  0  0  0  0
    5.0097   -2.7379    0.9810 O   0  0  0  0  0  0  0  0  0  0  0  0
   -1.4911   -1.8961   -0.2929 N   0  0  0  0  0  0  0  0  0  0  0  0
    1.9798   -3.3561    1.6685 N   0  0  0  0  0  0  0  0  0  0  0  0
    0.4131   -1.0857    0.5097 C   0  0  0  0  0  0  0  0  0  0  0  0
    1.8142   -0.9904    0.9673 C   0  0  0  0  0  0  0  0  0  0  0  0
   -0.5465   -0.0352    0.4958 C   0  0  0  0  0  0  0  0  0  0  0  0
    2.6113   -2.3110    0.8586 C   0  0  1  0  0  0  0  0  0  0  0  0
   -1.7324   -0.5700   -0.0122 C   0  0  0  0  0  0  0  0  0  0  0  0
   -0.1972   -2.2169    0.0190 C   0  0  0  0  0  0  0  0  0  0  0  0
   -0.5200    1.3237    0.8677 C   0  0  0  0  0  0  0  0  0  0  0  0
   -2.8977    0.1890   -0.1673 C   0  0  0  0  0  0  0  0  0  0  0  0
   -1.6782    2.0952    0.7181 C   0  0  0  0  0  0  0  0  0  0  0  0
    4.0238   -2.1387    1.3916 C   0  0  0  0  0  0  0  0  0  0  0  0
   -2.8476    1.5346    0.2083 C   0  0  0  0  0  0  0  0  0  0  0  0
    1.8257   -0.6525    2.0128 H   0  0  0  0  0  0  0  0  0  0  0  0
    2.3264   -0.2036    0.3963 H   0  0  0  0  0  0  0  0  0  0  0  0
    2.6589   -2.6544   -0.1814 H   0  0  0  0  0  0  0  0  0  0  0  0
    0.1713   -3.2212   -0.1372 H   0  0  0  0  0  0  0  0  0  0  0  0
   -2.1714   -2.5387   -0.6744 H   0  0  0  0  0  0  0  0  0  0  0  0
    0.3797    1.7776    1.2726 H   0  0  0  0  0  0  0  0  0  0  0  0
   -1.6638    3.1434    1.0046 H   0  0  0  0  0  0  0  0  0  0  0  0
   -3.7274    2.1665    0.1069 H   0  0  0  0  0  0  0  0  0  0  0  0
    2.4633   -4.2414    1.5202 H   0  0  0  0  0  0  0  0  0  0  0  0
    1.0219   -3.5001    1.3511 H   0  0  0  0  0  0  0  0  0  0  0  0
    5.0060   -1.0951    2.7137 H   0  0  0  0  0  0  0  0  0  0  0  0
  1 13  1  0  0  0  0
  2 15  1  0  0  0  0
  2 27  1  0  0  0  0
  3 15  2  0  0  0  0
  4 10  1  0  0  0  0
  4 11  1  0  0  0  0
  4 21  1  0  0  0  0
  5  9  1  0  0  0  0
  5 25  1  0  0  0  0
  5 26  1  0  0  0  0
  6  7  1  0  0  0  0
  6  8  1  0  0  0  0
  6 11  2  0  0  0  0
  7  9  1  0  0  0  0
  7 17  1  0  0  0  0
  7 18  1  0  0  0  0
  8 10  2  0  0  0  0
  8 12  1  0  0  0  0
  9 15  1  0  0  0  0
  9 19  1  6  0  0  0
 10 13  1  0  0  0  0
 11 20  1  0  0  0  0
 12 14  2  0  0  0  0
 12 22  1  0  0  0  0
 13 16  2  0  0  0  0
 14 16  1  0  0  0  0
 14 23  1  0  0  0  0
 16 24  1  0  0  0  0
M  END
>  <PUBCHEM_COMPOUND_CID>
11737641

>  <PUBCHEM_CONFORMER_RMSD>
0.6

>  <PUBCHEM_CONFORMER_DIVERSEORDER>
1
16
19
14
7
13
11
15
18
6
5
12
8
3
17
4
9
2
10

>  <PUBCHEM_MMFF94_PARTIAL_CHARGES>
23
1 -0.11
10 -0.15
11 -0.3
12 -0.15
13 0.11
14 -0.15
15 0.66
16 -0.15
2 -0.65
20 0.15
21 0.27
22 0.15
23 0.15
24 0.15
25 0.36
26 0.36
27 0.5
3 -0.57
4 0.03
5 -0.99
6 -0.18
7 0.18
9 0.33

>  <PUBCHEM_EFFECTIVE_ROTOR_COUNT>
3

>  <PUBCHEM_PHARMACOPHORE_FEATURES>
10
1 1 hydrophobe
1 2 acceptor
1 3 acceptor
1 4 cation
1 4 donor
1 5 cation
1 5 donor
3 2 3 15 anion
5 4 6 8 10 11 rings
6 8 10 12 13 14 16 rings

>  <PUBCHEM_HEAVY_ATOM_COUNT>
16

>  <PUBCHEM_ATOM_DEF_STEREO_COUNT>
1

>  <PUBCHEM_ATOM_UDEF_STEREO_COUNT>
0

>  <PUBCHEM_BOND_DEF_STEREO_COUNT>
0

>  <PUBCHEM_BOND_UDEF_STEREO_COUNT>
0

>  <PUBCHEM_ISOTOPIC_ATOM_COUNT>
0

>  <PUBCHEM_COMPONENT_COUNT>
1

>  <PUBCHEM_CACTVS_TAUTO_COUNT>
1

>  <PUBCHEM_CONFORMER_ID>
00B31A2900000001

>  <PUBCHEM_MMFF94_ENERGY>
21.2917

>  <PUBCHEM_FEATURE_SELFOVERLAP>
50.894

>  <PUBCHEM_SHAPE_FINGERPRINT>
10062212 137 18338790109833023619
11640471 11 17823430464157310204
13538477 17 18334570282594605042
14115302 16 18335699481004429023
14993402 34 18187928339683679406
15775835 57 18260559904629766484
16945 1 18340778082358437947
17802600 8 18261385633398388900
17862501 102 18338228272007223554
18186145 218 18408608041313143461
192875 21 18410006637383965324
20645476 183 18187076252595506835
21524375 3 18333733489768519475
23402539 116 18201710734874874452
23419403 2 16536722669594432170
23557571 272 17489867120170046770
23559900 14 18272087249550677728
2748010 2 16032660553244265307
353137 74 18410576201586879465
474 4 17677053563657309804
5262128 65 17702128961242040124
537710 114 18410572907668599745
53812653 8 18412546496559348171
7364860 26 17839465487959327439
7832392 63 17907866102070327712
9981440 41 17612874108177617872

>  <PUBCHEM_SHAPE_MULTIPOLES>
313.51
6.46
2.11
1.04
0.23
0.15
0.25
0.21
1.49
0.41
-0.22
-0.24
0.17
-0.9

>  <PUBCHEM_SHAPE_SELFOVERLAP>
660.914

>  <PUBCHEM_SHAPE_VOLUME>
180.8

>  <PUBCHEM_COORDINATE_TYPE>
2
5
10

$$$$
11737641
 OpenBabel12092211553D

 27 28  0  0  1  0  0  0  0  0999 V2000
   -4.4920   -0.5490   -0.8566 Br  0  0  0  0  0  0  0  0  0  0  0  0
   -0.0419   -1.8598    3.0547 O   0  0  0  0  0  0  0  0  0  0  0  0
    1.6615   -1.2945    4.4403 O   0  0  0  0  0  0  0  0  0  0  0  0
   -1.4911   -1.8961   -0.2929 N   0  0  0  0  0  0  0  0  0  0  0  0
    1.9494   -3.3303    1.7562 N   0  0  0  0  0  0  0  0  0  0  0  0
    0.4131   -1.0857    0.5097 C   0  0  0  0  0  0  0  0  0  0  0  0
    1.8142   -0.9904    0.9673 C   0  0  0  0  0  0  0  0  0  0  0  0
   -0.5465   -0.0352    0.4958 C   0  0  0  0  0  0  0  0  0  0  0  0
    2.1668   -1.9333    2.1411 C   0  0  1  0  0  0  0  0  0  0  0  0
   -1.7324   -0.5700   -0.0122 C   0  0  0  0  0  0  0  0  0  0  0  0
   -0.1972   -2.2169    0.0190 C   0  0  0  0  0  0  0  0  0  0  0  0
   -0.5200    1.3237    0.8677 C   0  0  0  0  0  0  0  0  0  0  0  0
   -2.8977    0.1890   -0.1673 C   0  0  0  0  0  0  0  0  0  0  0  0
   -1.6782    2.0952    0.7181 C   0  0  0  0  0  0  0  0  0  0  0  0
    1.2725   -1.6662    3.3403 C   0  0  0  0  0  0  0  0  0  0  0  0
   -2.8476    1.5346    0.2083 C   0  0  0  0  0  0  0  0  0  0  0  0
    2.0214    0.0458    1.2683 H   0  0  0  0  0  0  0  0  0  0  0  0
    2.4840   -1.1919    0.1198 H   0  0  0  0  0  0  0  0  0  0  0  0
    3.2144   -1.8110    2.4397 H   0  0  0  0  0  0  0  0  0  0  0  0
    0.1713   -3.2212   -0.1372 H   0  0  0  0  0  0  0  0  0  0  0  0
   -2.1714   -2.5387   -0.6744 H   0  0  0  0  0  0  0  0  0  0  0  0
    0.3797    1.7776    1.2726 H   0  0  0  0  0  0  0  0  0  0  0  0
   -1.6638    3.1434    1.0046 H   0  0  0  0  0  0  0  0  0  0  0  0
   -3.7274    2.1665    0.1069 H   0  0  0  0  0  0  0  0  0  0  0  0
    2.2667   -3.9441    2.5059 H   0  0  0  0  0  0  0  0  0  0  0  0
    2.5252   -3.5531    0.9451 H   0  0  0  0  0  0  0  0  0  0  0  0
   -0.6147   -1.6790    3.8303 H   0  0  0  0  0  0  0  0  0  0  0  0
  1 13  1  0  0  0  0
  2 15  1  0  0  0  0
  2 27  1  0  0  0  0
  3 15  2  0  0  0  0
  4 10  1  0  0  0  0
  4 11  1  0  0  0  0
  4 21  1  0  0  0  0
  5  9  1  0  0  0  0
  5 25  1  0  0  0  0
  5 26  1  0  0  0  0
  6  7  1  0  0  0  0
  6  8  1  0  0  0  0
  6 11  2  0  0  0  0
  7  9  1  0  0  0  0
  7 17  1  0  0  0  0
  7 18  1  0  0  0  0
  8 10  2  0  0  0  0
  8 12  1  0  0  0  0
  9 15  1  0  0  0  0
  9 19  1  1  0  0  0
 10 13  1  0  0  0  0
 11 20  1  0  0  0  0
 12 14  2  0  0  0  0
 12 22  1  0  0  0  0
 13 16  2  0  0  0  0
 14 16  1  0  0  0  0
 14 23  1  0  0  0  0
 16 24  1  0  0  0  0
M  END
>  <PUBCHEM_COMPOUND_CID>
11737641

>  <PUBCHEM_CONFORMER_RMSD>
0.6

>  <PUBCHEM_CONFORMER_DIVERSEORDER>
1
16
19
14
7
13
11
15
18
6
5
12
8
3
17
4
9
2
10

>  <PUBCHEM_MMFF94_PARTIAL_CHARGES>
23
1 -0.11
10 -0.15
11 -0.3
12 -0.15
13 0.11
14 -0.15
15 0.66
16 -0.15
2 -0.65
20 0.15
21 0.27
22 0.15
23 0.15
24 0.15
25 0.36
26 0.36
27 0.5
3 -0.57
4 0.03
5 -0.99
6 -0.18
7 0.18
9 0.33

>  <PUBCHEM_EFFECTIVE_ROTOR_COUNT>
3

>  <PUBCHEM_PHARMACOPHORE_FEATURES>
10
1 1 hydrophobe
1 2 acceptor
1 3 acceptor
1 4 cation
1 4 donor
1 5 cation
1 5 donor
3 2 3 15 anion
5 4 6 8 10 11 rings
6 8 10 12 13 14 16 rings

>  <PUBCHEM_HEAVY_ATOM_COUNT>
16

>  <PUBCHEM_ATOM_DEF_STEREO_COUNT>
1

>  <PUBCHEM_ATOM_UDEF_STEREO_COUNT>
0

>  <PUBCHEM_BOND_DEF_STEREO_COUNT>
0

>  <PUBCHEM_BOND_UDEF_STEREO_COUNT>
0

>  <PUBCHEM_ISOTOPIC_ATOM_COUNT>
0

>  <PUBCHEM_COMPONENT_COUNT>
1

>  <PUBCHEM_CACTVS_TAUTO_COUNT>
1

>  <PUBCHEM_CONFORMER_ID>
00B31A2900000001

>  <PUBCHEM_MMFF94_ENERGY>
21.2917

>  <PUBCHEM_FEATURE_SELFOVERLAP>
50.894

>  <PUBCHEM_SHAPE_FINGERPRINT>
10062212 137 18338790109833023619
11640471 11 17823430464157310204
13538477 17 18334570282594605042
14115302 16 18335699481004429023
14993402 34 18187928339683679406
15775835 57 18260559904629766484
16945 1 18340778082358437947
17802600 8 18261385633398388900
17862501 102 18338228272007223554
18186145 218 18408608041313143461
192875 21 18410006637383965324
20645476 183 18187076252595506835
21524375 3 18333733489768519475
23402539 116 18201710734874874452
23419403 2 16536722669594432170
23557571 272 17489867120170046770
23559900 14 18272087249550677728
2748010 2 16032660553244265307
353137 74 18410576201586879465
474 4 17677053563657309804
5262128 65 17702128961242040124
537710 114 18410572907668599745
53812653 8 18412546496559348171
7364860 26 17839465487959327439
7832392 63 17907866102070327712
9981440 41 17612874108177617872

>  <PUBCHEM_SHAPE_MULTIPOLES>
313.51
6.46
2.11
1.04
0.23
0.15
0.25
0.21
1.49
0.41
-0.22
-0.24
0.17
-0.9

>  <PUBCHEM_SHAPE_SELFOVERLAP>
660.914

>  <PUBCHEM_SHAPE_VOLUME>
180.8

>  <PUBCHEM_COORDINATE_TYPE>
2
5
10

$$$$
11737641
 OpenBabel12092211553D

 27 28  0  0  1  0  0  0  0  0999 V2000
   -4.4920   -0.5490   -0.8566 Br  0  0  0  0  0  0  0  0  0  0  0  0
    4.4937   -0.8085    1.0621 O   0  0  0  0  0  0  0  0  0  0  0  0
    4.4917    1.3634    1.7132 O   0  0  0  0  0  0  0  0  0  0  0  0
   -1.4911   -1.8961   -0.2929 N   0  0  0  0  0  0  0  0  0  0  0  0
    2.4523    0.7782   -0.6392 N   0  0  0  0  0  0  0  0  0  0  0  0
    0.4131   -1.0857    0.5097 C   0  0  0  0  0  0  0  0  0  0  0  0
    1.8142   -0.9904    0.9673 C   0  0  0  0  0  0  0  0  0  0  0  0
   -0.5465   -0.0352    0.4958 C   0  0  0  0  0  0  0  0  0  0  0  0
    2.4530    0.4050    0.7778 C   0  0  1  0  0  0  0  0  0  0  0  0
   -1.7324   -0.5700   -0.0122 C   0  0  0  0  0  0  0  0  0  0  0  0
   -0.1972   -2.2169    0.0190 C   0  0  0  0  0  0  0  0  0  0  0  0
   -0.5200    1.3237    0.8677 C   0  0  0  0  0  0  0  0  0  0  0  0
   -2.8977    0.1890   -0.1673 C   0  0  0  0  0  0  0  0  0  0  0  0
   -1.6782    2.0952    0.7181 C   0  0  0  0  0  0  0  0  0  0  0  0
    3.9040    0.4044    1.2288 C   0  0  0  0  0  0  0  0  0  0  0  0
   -2.8476    1.5346    0.2083 C   0  0  0  0  0  0  0  0  0  0  0  0
    2.4169   -1.7342    0.4280 H   0  0  0  0  0  0  0  0  0  0  0  0
    1.8671   -1.2783    2.0264 H   0  0  0  0  0  0  0  0  0  0  0  0
    1.9018    1.1670    1.3410 H   0  0  0  0  0  0  0  0  0  0  0  0
    0.1713   -3.2212   -0.1372 H   0  0  0  0  0  0  0  0  0  0  0  0
   -2.1714   -2.5387   -0.6744 H   0  0  0  0  0  0  0  0  0  0  0  0
    0.3797    1.7776    1.2726 H   0  0  0  0  0  0  0  0  0  0  0  0
   -1.6638    3.1434    1.0046 H   0  0  0  0  0  0  0  0  0  0  0  0
   -3.7274    2.1665    0.1069 H   0  0  0  0  0  0  0  0  0  0  0  0
    2.7954    1.7329   -0.7407 H   0  0  0  0  0  0  0  0  0  0  0  0
    1.4949    0.7826   -0.9893 H   0  0  0  0  0  0  0  0  0  0  0  0
    5.4279   -0.8048    1.3615 H   0  0  0  0  0  0  0  0  0  0  0  0
  1 13  1  0  0  0  0
  2 15  1  0  0  0  0
  2 27  1  0  0  0  0
  3 15  2  0  0  0  0
  4 10  1  0  0  0  0
  4 11  1  0  0  0  0
  4 21  1  0  0  0  0
  5  9  1  0  0  0  0
  5 25  1  0  0  0  0
  5 26  1  0  0  0  0
  6  7  1  0  0  0  0
  6  8  1  0  0  0  0
  6 11  2  0  0  0  0
  7  9  1  0  0  0  0
  7 17  1  0  0  0  0
  7 18  1  0  0  0  0
  8 10  2  0  0  0  0
  8 12  1  0  0  0  0
  9 15  1  0  0  0  0
  9 19  1  1  0  0  0
 10 13  1  0  0  0  0
 11 20  1  0  0  0  0
 12 14  2  0  0  0  0
 12 22  1  0  0  0  0
 13 16  2  0  0  0  0
 14 16  1  0  0  0  0
 14 23  1  0  0  0  0
 16 24  1  0  0  0  0
M  END
>  <PUBCHEM_COMPOUND_CID>
11737641

>  <PUBCHEM_CONFORMER_RMSD>
0.6

>  <PUBCHEM_CONFORMER_DIVERSEORDER>
1
16
19
14
7
13
11
15
18
6
5
12
8
3
17
4
9
2
10

>  <PUBCHEM_MMFF94_PARTIAL_CHARGES>
23
1 -0.11
10 -0.15
11 -0.3
12 -0.15
13 0.11
14 -0.15
15 0.66
16 -0.15
2 -0.65
20 0.15
21 0.27
22 0.15
23 0.15
24 0.15
25 0.36
26 0.36
27 0.5
3 -0.57
4 0.03
5 -0.99
6 -0.18
7 0.18
9 0.33

>  <PUBCHEM_EFFECTIVE_ROTOR_COUNT>
3

>  <PUBCHEM_PHARMACOPHORE_FEATURES>
10
1 1 hydrophobe
1 2 acceptor
1 3 acceptor
1 4 cation
1 4 donor
1 5 cation
1 5 donor
3 2 3 15 anion
5 4 6 8 10 11 rings
6 8 10 12 13 14 16 rings

>  <PUBCHEM_HEAVY_ATOM_COUNT>
16

>  <PUBCHEM_ATOM_DEF_STEREO_COUNT>
1

>  <PUBCHEM_ATOM_UDEF_STEREO_COUNT>
0

>  <PUBCHEM_BOND_DEF_STEREO_COUNT>
0

>  <PUBCHEM_BOND_UDEF_STEREO_COUNT>
0

>  <PUBCHEM_ISOTOPIC_ATOM_COUNT>
0

>  <PUBCHEM_COMPONENT_COUNT>
1

>  <PUBCHEM_CACTVS_TAUTO_COUNT>
1

>  <PUBCHEM_CONFORMER_ID>
00B31A2900000001

>  <PUBCHEM_MMFF94_ENERGY>
21.2917

>  <PUBCHEM_FEATURE_SELFOVERLAP>
50.894

>  <PUBCHEM_SHAPE_FINGERPRINT>
10062212 137 18338790109833023619
11640471 11 17823430464157310204
13538477 17 18334570282594605042
14115302 16 18335699481004429023
14993402 34 18187928339683679406
15775835 57 18260559904629766484
16945 1 18340778082358437947
17802600 8 18261385633398388900
17862501 102 18338228272007223554
18186145 218 18408608041313143461
192875 21 18410006637383965324
20645476 183 18187076252595506835
21524375 3 18333733489768519475
23402539 116 18201710734874874452
23419403 2 16536722669594432170
23557571 272 17489867120170046770
23559900 14 18272087249550677728
2748010 2 16032660553244265307
353137 74 18410576201586879465
474 4 17677053563657309804
5262128 65 17702128961242040124
537710 114 18410572907668599745
53812653 8 18412546496559348171
7364860 26 17839465487959327439
7832392 63 17907866102070327712
9981440 41 17612874108177617872

>  <PUBCHEM_SHAPE_MULTIPOLES>
313.51
6.46
2.11
1.04
0.23
0.15
0.25
0.21
1.49
0.41
-0.22
-0.24
0.17
-0.9

>  <PUBCHEM_SHAPE_SELFOVERLAP>
660.914

>  <PUBCHEM_SHAPE_VOLUME>
180.8

>  <PUBCHEM_COORDINATE_TYPE>
2
5
10

$$$$
11737641
 OpenBabel12092211553D

 27 28  0  0  1  0  0  0  0  0999 V2000
   -4.4920   -0.5490   -0.8566 Br  0  0  0  0  0  0  0  0  0  0  0  0
    3.3711    1.1449   -1.6801 O   0  0  0  0  0  0  0  0  0  0  0  0
    1.5969    1.5034   -0.3146 O   0  0  0  0  0  0  0  0  0  0  0  0
   -1.4911   -1.8961   -0.2929 N   0  0  0  0  0  0  0  0  0  0  0  0
    4.1785   -0.5301    0.4072 N   0  0  0  0  0  0  0  0  0  0  0  0
    0.4131   -1.0857    0.5097 C   0  0  0  0  0  0  0  0  0  0  0  0
    1.8142   -0.9904    0.9673 C   0  0  0  0  0  0  0  0  0  0  0  0
   -0.5465   -0.0352    0.4958 C   0  0  0  0  0  0  0  0  0  0  0  0
    2.8208   -0.5992   -0.1394 C   0  0  1  0  0  0  0  0  0  0  0  0
   -1.7324   -0.5700   -0.0122 C   0  0  0  0  0  0  0  0  0  0  0  0
   -0.1972   -2.2169    0.0190 C   0  0  0  0  0  0  0  0  0  0  0  0
   -0.5200    1.3237    0.8677 C   0  0  0  0  0  0  0  0  0  0  0  0
   -2.8977    0.1890   -0.1673 C   0  0  0  0  0  0  0  0  0  0  0  0
   -1.6782    2.0952    0.7181 C   0  0  0  0  0  0  0  0  0  0  0  0
    2.5047    0.7774   -0.6998 C   0  0  0  0  0  0  0  0  0  0  0  0
   -2.8476    1.5346    0.2083 C   0  0  0  0  0  0  0  0  0  0  0  0
    2.1153   -1.9556    1.3976 H   0  0  0  0  0  0  0  0  0  0  0  0
    1.8749   -0.2669    1.7921 H   0  0  0  0  0  0  0  0  0  0  0  0
    2.8085   -1.3310   -0.9555 H   0  0  0  0  0  0  0  0  0  0  0  0
    0.1713   -3.2212   -0.1372 H   0  0  0  0  0  0  0  0  0  0  0  0
   -2.1714   -2.5387   -0.6744 H   0  0  0  0  0  0  0  0  0  0  0  0
    0.3797    1.7776    1.2726 H   0  0  0  0  0  0  0  0  0  0  0  0
   -1.6638    3.1434    1.0046 H   0  0  0  0  0  0  0  0  0  0  0  0
   -3.7274    2.1665    0.1069 H   0  0  0  0  0  0  0  0  0  0  0  0
    4.8418   -0.3571   -0.3476 H   0  0  0  0  0  0  0  0  0  0  0  0
    4.4315   -1.4339    0.8048 H   0  0  0  0  0  0  0  0  0  0  0  0
    3.1665    2.0370   -2.0329 H   0  0  0  0  0  0  0  0  0  0  0  0
  1 13  1  0  0  0  0
  2 15  1  0  0  0  0
  2 27  1  0  0  0  0
  3 15  2  0  0  0  0
  4 10  1  0  0  0  0
  4 11  1  0  0  0  0
  4 21  1  0  0  0  0
  5  9  1  0  0  0  0
  5 25  1  0  0  0  0
  5 26  1  0  0  0  0
  6  7  1  0  0  0  0
  6  8  1  0  0  0  0
  6 11  2  0  0  0  0
  7  9  1  0  0  0  0
  7 17  1  0  0  0  0
  7 18  1  0  0  0  0
  8 10  2  0  0  0  0
  8 12  1  0  0  0  0
  9 15  1  0  0  0  0
  9 19  1  6  0  0  0
 10 13  1  0  0  0  0
 11 20  1  0  0  0  0
 12 14  2  0  0  0  0
 12 22  1  0  0  0  0
 13 16  2  0  0  0  0
 14 16  1  0  0  0  0
 14 23  1  0  0  0  0
 16 24  1  0  0  0  0
M  END
>  <PUBCHEM_COMPOUND_CID>
11737641

>  <PUBCHEM_CONFORMER_RMSD>
0.6

>  <PUBCHEM_CONFORMER_DIVERSEORDER>
1
16
19
14
7
13
11
15
18
6
5
12
8
3
17
4
9
2
10

>  <PUBCHEM_MMFF94_PARTIAL_CHARGES>
23
1 -0.11
10 -0.15
11 -0.3
12 -0.15
13 0.11
14 -0.15
15 0.66
16 -0.15
2 -0.65
20 0.15
21 0.27
22 0.15
23 0.15
24 0.15
25 0.36
26 0.36
27 0.5
3 -0.57
4 0.03
5 -0.99
6 -0.18
7 0.18
9 0.33

>  <PUBCHEM_EFFECTIVE_ROTOR_COUNT>
3

>  <PUBCHEM_PHARMACOPHORE_FEATURES>
10
1 1 hydrophobe
1 2 acceptor
1 3 acceptor
1 4 cation
1 4 donor
1 5 cation
1 5 donor
3 2 3 15 anion
5 4 6 8 10 11 rings
6 8 10 12 13 14 16 rings

>  <PUBCHEM_HEAVY_ATOM_COUNT>
16

>  <PUBCHEM_ATOM_DEF_STEREO_COUNT>
1

>  <PUBCHEM_ATOM_UDEF_STEREO_COUNT>
0

>  <PUBCHEM_BOND_DEF_STEREO_COUNT>
0

>  <PUBCHEM_BOND_UDEF_STEREO_COUNT>
0

>  <PUBCHEM_ISOTOPIC_ATOM_COUNT>
0

>  <PUBCHEM_COMPONENT_COUNT>
1

>  <PUBCHEM_CACTVS_TAUTO_COUNT>
1

>  <PUBCHEM_CONFORMER_ID>
00B31A2900000001

>  <PUBCHEM_MMFF94_ENERGY>
21.2917

>  <PUBCHEM_FEATURE_SELFOVERLAP>
50.894

>  <PUBCHEM_SHAPE_FINGERPRINT>
10062212 137 18338790109833023619
11640471 11 17823430464157310204
13538477 17 18334570282594605042
14115302 16 18335699481004429023
14993402 34 18187928339683679406
15775835 57 18260559904629766484
16945 1 18340778082358437947
17802600 8 18261385633398388900
17862501 102 18338228272007223554
18186145 218 18408608041313143461
192875 21 18410006637383965324
20645476 183 18187076252595506835
21524375 3 18333733489768519475
23402539 116 18201710734874874452
23419403 2 16536722669594432170
23557571 272 17489867120170046770
23559900 14 18272087249550677728
2748010 2 16032660553244265307
353137 74 18410576201586879465
474 4 17677053563657309804
5262128 65 17702128961242040124
537710 114 18410572907668599745
53812653 8 18412546496559348171
7364860 26 17839465487959327439
7832392 63 17907866102070327712
9981440 41 17612874108177617872

>  <PUBCHEM_SHAPE_MULTIPOLES>
313.51
6.46
2.11
1.04
0.23
0.15
0.25
0.21
1.49
0.41
-0.22
-0.24
0.17
-0.9

>  <PUBCHEM_SHAPE_SELFOVERLAP>
660.914

>  <PUBCHEM_SHAPE_VOLUME>
180.8

>  <PUBCHEM_COORDINATE_TYPE>
2
5
10

$$$$
11737641
 OpenBabel12092211553D

 27 28  0  0  1  0  0  0  0  0999 V2000
   -4.4920   -0.5490   -0.8566 Br  0  0  0  0  0  0  0  0  0  0  0  0
    4.0338    0.7210    2.5440 O   0  0  0  0  0  0  0  0  0  0  0  0
    4.8661    0.1740    0.5071 O   0  0  0  0  0  0  0  0  0  0  0  0
   -1.4911   -1.8961   -0.2929 N   0  0  0  0  0  0  0  0  0  0  0  0
    2.4523    0.7782   -0.6392 N   0  0  0  0  0  0  0  0  0  0  0  0
    0.4131   -1.0857    0.5097 C   0  0  0  0  0  0  0  0  0  0  0  0
    1.8142   -0.9904    0.9673 C   0  0  0  0  0  0  0  0  0  0  0  0
   -0.5465   -0.0352    0.4958 C   0  0  0  0  0  0  0  0  0  0  0  0
    2.4530    0.4050    0.7778 C   0  0  1  0  0  0  0  0  0  0  0  0
   -1.7324   -0.5700   -0.0122 C   0  0  0  0  0  0  0  0  0  0  0  0
   -0.1972   -2.2169    0.0190 C   0  0  0  0  0  0  0  0  0  0  0  0
   -0.5200    1.3237    0.8677 C   0  0  0  0  0  0  0  0  0  0  0  0
   -2.8977    0.1890   -0.1673 C   0  0  0  0  0  0  0  0  0  0  0  0
   -1.6782    2.0952    0.7181 C   0  0  0  0  0  0  0  0  0  0  0  0
    3.9040    0.4044    1.2288 C   0  0  0  0  0  0  0  0  0  0  0  0
   -2.8476    1.5346    0.2083 C   0  0  0  0  0  0  0  0  0  0  0  0
    2.4169   -1.7342    0.4280 H   0  0  0  0  0  0  0  0  0  0  0  0
    1.8671   -1.2783    2.0264 H   0  0  0  0  0  0  0  0  0  0  0  0
    1.9018    1.1670    1.3410 H   0  0  0  0  0  0  0  0  0  0  0  0
    0.1713   -3.2212   -0.1372 H   0  0  0  0  0  0  0  0  0  0  0  0
   -2.1714   -2.5387   -0.6744 H   0  0  0  0  0  0  0  0  0  0  0  0
    0.3797    1.7776    1.2726 H   0  0  0  0  0  0  0  0  0  0  0  0
   -1.6638    3.1434    1.0046 H   0  0  0  0  0  0  0  0  0  0  0  0
   -3.7274    2.1665    0.1069 H   0  0  0  0  0  0  0  0  0  0  0  0
    2.7954    1.7329   -0.7407 H   0  0  0  0  0  0  0  0  0  0  0  0
    1.4949    0.7826   -0.9893 H   0  0  0  0  0  0  0  0  0  0  0  0
    4.9728    0.7260    2.8276 H   0  0  0  0  0  0  0  0  0  0  0  0
  1 13  1  0  0  0  0
  2 15  1  0  0  0  0
  2 27  1  0  0  0  0
  3 15  2  0  0  0  0
  4 10  1  0  0  0  0
  4 11  1  0  0  0  0
  4 21  1  0  0  0  0
  5  9  1  0  0  0  0
  5 25  1  0  0  0  0
  5 26  1  0  0  0  0
  6  7  1  0  0  0  0
  6  8  1  0  0  0  0
  6 11  2  0  0  0  0
  7  9  1  0  0  0  0
  7 17  1  0  0  0  0
  7 18  1  0  0  0  0
  8 10  2  0  0  0  0
  8 12  1  0  0  0  0
  9 15  1  0  0  0  0
  9 19  1  1  0  0  0
 10 13  1  0  0  0  0
 11 20  1  0  0  0  0
 12 14  2  0  0  0  0
 12 22  1  0  0  0  0
 13 16  2  0  0  0  0
 14 16  1  0  0  0  0
 14 23  1  0  0  0  0
 16 24  1  0  0  0  0
M  END
>  <PUBCHEM_COMPOUND_CID>
11737641

>  <PUBCHEM_CONFORMER_RMSD>
0.6

>  <PUBCHEM_CONFORMER_DIVERSEORDER>
1
16
19
14
7
13
11
15
18
6
5
12
8
3
17
4
9
2
10

>  <PUBCHEM_MMFF94_PARTIAL_CHARGES>
23
1 -0.11
10 -0.15
11 -0.3
12 -0.15
13 0.11
14 -0.15
15 0.66
16 -0.15
2 -0.65
20 0.15
21 0.27
22 0.15
23 0.15
24 0.15
25 0.36
26 0.36
27 0.5
3 -0.57
4 0.03
5 -0.99
6 -0.18
7 0.18
9 0.33

>  <PUBCHEM_EFFECTIVE_ROTOR_COUNT>
3

>  <PUBCHEM_PHARMACOPHORE_FEATURES>
10
1 1 hydrophobe
1 2 acceptor
1 3 acceptor
1 4 cation
1 4 donor
1 5 cation
1 5 donor
3 2 3 15 anion
5 4 6 8 10 11 rings
6 8 10 12 13 14 16 rings

>  <PUBCHEM_HEAVY_ATOM_COUNT>
16

>  <PUBCHEM_ATOM_DEF_STEREO_COUNT>
1

>  <PUBCHEM_ATOM_UDEF_STEREO_COUNT>
0

>  <PUBCHEM_BOND_DEF_STEREO_COUNT>
0

>  <PUBCHEM_BOND_UDEF_STEREO_COUNT>
0

>  <PUBCHEM_ISOTOPIC_ATOM_COUNT>
0

>  <PUBCHEM_COMPONENT_COUNT>
1

>  <PUBCHEM_CACTVS_TAUTO_COUNT>
1

>  <PUBCHEM_CONFORMER_ID>
00B31A2900000001

>  <PUBCHEM_MMFF94_ENERGY>
21.2917

>  <PUBCHEM_FEATURE_SELFOVERLAP>
50.894

>  <PUBCHEM_SHAPE_FINGERPRINT>
10062212 137 18338790109833023619
11640471 11 17823430464157310204
13538477 17 18334570282594605042
14115302 16 18335699481004429023
14993402 34 18187928339683679406
15775835 57 18260559904629766484
16945 1 18340778082358437947
17802600 8 18261385633398388900
17862501 102 18338228272007223554
18186145 218 18408608041313143461
192875 21 18410006637383965324
20645476 183 18187076252595506835
21524375 3 18333733489768519475
23402539 116 18201710734874874452
23419403 2 16536722669594432170
23557571 272 17489867120170046770
23559900 14 18272087249550677728
2748010 2 16032660553244265307
353137 74 18410576201586879465
474 4 17677053563657309804
5262128 65 17702128961242040124
537710 114 18410572907668599745
53812653 8 18412546496559348171
7364860 26 17839465487959327439
7832392 63 17907866102070327712
9981440 41 17612874108177617872

>  <PUBCHEM_SHAPE_MULTIPOLES>
313.51
6.46
2.11
1.04
0.23
0.15
0.25
0.21
1.49
0.41
-0.22
-0.24
0.17
-0.9

>  <PUBCHEM_SHAPE_SELFOVERLAP>
660.914

>  <PUBCHEM_SHAPE_VOLUME>
180.8

>  <PUBCHEM_COORDINATE_TYPE>
2
5
10

$$$$
11737641
 OpenBabel12092211553D

 27 28  0  0  1  0  0  0  0  0999 V2000
   -4.4920   -0.5490   -0.8566 Br  0  0  0  0  0  0  0  0  0  0  0  0
    2.6250   -4.5897    1.5837 O   0  0  0  0  0  0  0  0  0  0  0  0
    0.8945   -3.3010    2.2806 O   0  0  0  0  0  0  0  0  0  0  0  0
   -1.4911   -1.8961   -0.2929 N   0  0  0  0  0  0  0  0  0  0  0  0
    2.6589   -2.7650   -0.5337 N   0  0  0  0  0  0  0  0  0  0  0  0
    0.4131   -1.0857    0.5097 C   0  0  0  0  0  0  0  0  0  0  0  0
    1.8142   -0.9904    0.9673 C   0  0  0  0  0  0  0  0  0  0  0  0
   -0.5465   -0.0352    0.4958 C   0  0  0  0  0  0  0  0  0  0  0  0
    2.6113   -2.3110    0.8586 C   0  0  1  0  0  0  0  0  0  0  0  0
   -1.7324   -0.5700   -0.0122 C   0  0  0  0  0  0  0  0  0  0  0  0
   -0.1972   -2.2169    0.0190 C   0  0  0  0  0  0  0  0  0  0  0  0
   -0.5200    1.3237    0.8677 C   0  0  0  0  0  0  0  0  0  0  0  0
   -2.8977    0.1890   -0.1673 C   0  0  0  0  0  0  0  0  0  0  0  0
   -1.6782    2.0952    0.7181 C   0  0  0  0  0  0  0  0  0  0  0  0
    1.9416   -3.4173    1.6564 C   0  0  0  0  0  0  0  0  0  0  0  0
   -2.8476    1.5346    0.2083 C   0  0  0  0  0  0  0  0  0  0  0  0
    1.8257   -0.6525    2.0128 H   0  0  0  0  0  0  0  0  0  0  0  0
    2.3264   -0.2036    0.3963 H   0  0  0  0  0  0  0  0  0  0  0  0
    3.6380   -2.1787    1.2193 H   0  0  0  0  0  0  0  0  0  0  0  0
    0.1713   -3.2212   -0.1372 H   0  0  0  0  0  0  0  0  0  0  0  0
   -2.1714   -2.5387   -0.6744 H   0  0  0  0  0  0  0  0  0  0  0  0
    0.3797    1.7776    1.2726 H   0  0  0  0  0  0  0  0  0  0  0  0
   -1.6638    3.1434    1.0046 H   0  0  0  0  0  0  0  0  0  0  0  0
   -3.7274    2.1665    0.1069 H   0  0  0  0  0  0  0  0  0  0  0  0
    3.2582   -3.5867   -0.6043 H   0  0  0  0  0  0  0  0  0  0  0  0
    3.0943   -2.0465   -1.1111 H   0  0  0  0  0  0  0  0  0  0  0  0
    2.1843   -5.3017    2.0945 H   0  0  0  0  0  0  0  0  0  0  0  0
  1 13  1  0  0  0  0
  2 15  1  0  0  0  0
  2 27  1  0  0  0  0
  3 15  2  0  0  0  0
  4 10  1  0  0  0  0
  4 11  1  0  0  0  0
  4 21  1  0  0  0  0
  5  9  1  0  0  0  0
  5 25  1  0  0  0  0
  5 26  1  0  0  0  0
  6  7  1  0  0  0  0
  6  8  1  0  0  0  0
  6 11  2  0  0  0  0
  7  9  1  0  0  0  0
  7 17  1  0  0  0  0
  7 18  1  0  0  0  0
  8 10  2  0  0  0  0
  8 12  1  0  0  0  0
  9 15  1  0  0  0  0
  9 19  1  1  0  0  0
 10 13  1  0  0  0  0
 11 20  1  0  0  0  0
 12 14  2  0  0  0  0
 12 22  1  0  0  0  0
 13 16  2  0  0  0  0
 14 16  1  0  0  0  0
 14 23  1  0  0  0  0
 16 24  1  0  0  0  0
M  END
>  <PUBCHEM_COMPOUND_CID>
11737641

>  <PUBCHEM_CONFORMER_RMSD>
0.6

>  <PUBCHEM_CONFORMER_DIVERSEORDER>
1
16
19
14
7
13
11
15
18
6
5
12
8
3
17
4
9
2
10

>  <PUBCHEM_MMFF94_PARTIAL_CHARGES>
23
1 -0.11
10 -0.15
11 -0.3
12 -0.15
13 0.11
14 -0.15
15 0.66
16 -0.15
2 -0.65
20 0.15
21 0.27
22 0.15
23 0.15
24 0.15
25 0.36
26 0.36
27 0.5
3 -0.57
4 0.03
5 -0.99
6 -0.18
7 0.18
9 0.33

>  <PUBCHEM_EFFECTIVE_ROTOR_COUNT>
3

>  <PUBCHEM_PHARMACOPHORE_FEATURES>
10
1 1 hydrophobe
1 2 acceptor
1 3 acceptor
1 4 cation
1 4 donor
1 5 cation
1 5 donor
3 2 3 15 anion
5 4 6 8 10 11 rings
6 8 10 12 13 14 16 rings

>  <PUBCHEM_HEAVY_ATOM_COUNT>
16

>  <PUBCHEM_ATOM_DEF_STEREO_COUNT>
1

>  <PUBCHEM_ATOM_UDEF_STEREO_COUNT>
0

>  <PUBCHEM_BOND_DEF_STEREO_COUNT>
0

>  <PUBCHEM_BOND_UDEF_STEREO_COUNT>
0

>  <PUBCHEM_ISOTOPIC_ATOM_COUNT>
0

>  <PUBCHEM_COMPONENT_COUNT>
1

>  <PUBCHEM_CACTVS_TAUTO_COUNT>
1

>  <PUBCHEM_CONFORMER_ID>
00B31A2900000001

>  <PUBCHEM_MMFF94_ENERGY>
21.2917

>  <PUBCHEM_FEATURE_SELFOVERLAP>
50.894

>  <PUBCHEM_SHAPE_FINGERPRINT>
10062212 137 18338790109833023619
11640471 11 17823430464157310204
13538477 17 18334570282594605042
14115302 16 18335699481004429023
14993402 34 18187928339683679406
15775835 57 18260559904629766484
16945 1 18340778082358437947
17802600 8 18261385633398388900
17862501 102 18338228272007223554
18186145 218 18408608041313143461
192875 21 18410006637383965324
20645476 183 18187076252595506835
21524375 3 18333733489768519475
23402539 116 18201710734874874452
23419403 2 16536722669594432170
23557571 272 17489867120170046770
23559900 14 18272087249550677728
2748010 2 16032660553244265307
353137 74 18410576201586879465
474 4 17677053563657309804
5262128 65 17702128961242040124
537710 114 18410572907668599745
53812653 8 18412546496559348171
7364860 26 17839465487959327439
7832392 63 17907866102070327712
9981440 41 17612874108177617872

>  <PUBCHEM_SHAPE_MULTIPOLES>
313.51
6.46
2.11
1.04
0.23
0.15
0.25
0.21
1.49
0.41
-0.22
-0.24
0.17
-0.9

>  <PUBCHEM_SHAPE_SELFOVERLAP>
660.914

>  <PUBCHEM_SHAPE_VOLUME>
180.8

>  <PUBCHEM_COORDINATE_TYPE>
2
5
10

$$$$
11737641
 OpenBabel12092211553D

 27 28  0  0  1  0  0  0  0  0999 V2000
   -4.4920   -0.5490   -0.8566 Br  0  0  0  0  0  0  0  0  0  0  0  0
    1.1612   -3.3932    1.6928 O   0  0  0  0  0  0  0  0  0  0  0  0
    1.6300   -3.2325    3.9053 O   0  0  0  0  0  0  0  0  0  0  0  0
   -1.4911   -1.8961   -0.2929 N   0  0  0  0  0  0  0  0  0  0  0  0
    3.4321   -1.1799    2.8280 N   0  0  0  0  0  0  0  0  0  0  0  0
    0.4131   -1.0857    0.5097 C   0  0  0  0  0  0  0  0  0  0  0  0
    1.8142   -0.9904    0.9673 C   0  0  0  0  0  0  0  0  0  0  0  0
   -0.5465   -0.0352    0.4958 C   0  0  0  0  0  0  0  0  0  0  0  0
    2.0166   -1.2994    2.4689 C   0  0  1  0  0  0  0  0  0  0  0  0
   -1.7324   -0.5700   -0.0122 C   0  0  0  0  0  0  0  0  0  0  0  0
   -0.1972   -2.2169    0.0190 C   0  0  0  0  0  0  0  0  0  0  0  0
   -0.5200    1.3237    0.8677 C   0  0  0  0  0  0  0  0  0  0  0  0
   -2.8977    0.1890   -0.1673 C   0  0  0  0  0  0  0  0  0  0  0  0
   -1.6782    2.0952    0.7181 C   0  0  0  0  0  0  0  0  0  0  0  0
    1.6029   -2.7256    2.7909 C   0  0  0  0  0  0  0  0  0  0  0  0
   -2.8476    1.5346    0.2083 C   0  0  0  0  0  0  0  0  0  0  0  0
    2.1897    0.0208    0.7580 H   0  0  0  0  0  0  0  0  0  0  0  0
    2.4361   -1.6675    0.3654 H   0  0  0  0  0  0  0  0  0  0  0  0
    1.4375   -0.6078    3.0918 H   0  0  0  0  0  0  0  0  0  0  0  0
    0.1713   -3.2212   -0.1372 H   0  0  0  0  0  0  0  0  0  0  0  0
   -2.1714   -2.5387   -0.6744 H   0  0  0  0  0  0  0  0  0  0  0  0
    0.3797    1.7776    1.2726 H   0  0  0  0  0  0  0  0  0  0  0  0
   -1.6638    3.1434    1.0046 H   0  0  0  0  0  0  0  0  0  0  0  0
   -3.7274    2.1665    0.1069 H   0  0  0  0  0  0  0  0  0  0  0  0
    3.5400   -1.3004    3.8347 H   0  0  0  0  0  0  0  0  0  0  0  0
    3.7575   -0.2367    2.6193 H   0  0  0  0  0  0  0  0  0  0  0  0
    0.8890   -4.3107    1.9081 H   0  0  0  0  0  0  0  0  0  0  0  0
  1 13  1  0  0  0  0
  2 15  1  0  0  0  0
  2 27  1  0  0  0  0
  3 15  2  0  0  0  0
  4 10  1  0  0  0  0
  4 11  1  0  0  0  0
  4 21  1  0  0  0  0
  5  9  1  0  0  0  0
  5 25  1  0  0  0  0
  5 26  1  0  0  0  0
  6  7  1  0  0  0  0
  6  8  1  0  0  0  0
  6 11  2  0  0  0  0
  7  9  1  0  0  0  0
  7 17  1  0  0  0  0
  7 18  1  0  0  0  0
  8 10  2  0  0  0  0
  8 12  1  0  0  0  0
  9 15  1  0  0  0  0
  9 19  1  1  0  0  0
 10 13  1  0  0  0  0
 11 20  1  0  0  0  0
 12 14  2  0  0  0  0
 12 22  1  0  0  0  0
 13 16  2  0  0  0  0
 14 16  1  0  0  0  0
 14 23  1  0  0  0  0
 16 24  1  0  0  0  0
M  END
>  <PUBCHEM_COMPOUND_CID>
11737641

>  <PUBCHEM_CONFORMER_RMSD>
0.6

>  <PUBCHEM_CONFORMER_DIVERSEORDER>
1
16
19
14
7
13
11
15
18
6
5
12
8
3
17
4
9
2
10

>  <PUBCHEM_MMFF94_PARTIAL_CHARGES>
23
1 -0.11
10 -0.15
11 -0.3
12 -0.15
13 0.11
14 -0.15
15 0.66
16 -0.15
2 -0.65
20 0.15
21 0.27
22 0.15
23 0.15
24 0.15
25 0.36
26 0.36
27 0.5
3 -0.57
4 0.03
5 -0.99
6 -0.18
7 0.18
9 0.33

>  <PUBCHEM_EFFECTIVE_ROTOR_COUNT>
3

>  <PUBCHEM_PHARMACOPHORE_FEATURES>
10
1 1 hydrophobe
1 2 acceptor
1 3 acceptor
1 4 cation
1 4 donor
1 5 cation
1 5 donor
3 2 3 15 anion
5 4 6 8 10 11 rings
6 8 10 12 13 14 16 rings

>  <PUBCHEM_HEAVY_ATOM_COUNT>
16

>  <PUBCHEM_ATOM_DEF_STEREO_COUNT>
1

>  <PUBCHEM_ATOM_UDEF_STEREO_COUNT>
0

>  <PUBCHEM_BOND_DEF_STEREO_COUNT>
0

>  <PUBCHEM_BOND_UDEF_STEREO_COUNT>
0

>  <PUBCHEM_ISOTOPIC_ATOM_COUNT>
0

>  <PUBCHEM_COMPONENT_COUNT>
1

>  <PUBCHEM_CACTVS_TAUTO_COUNT>
1

>  <PUBCHEM_CONFORMER_ID>
00B31A2900000001

>  <PUBCHEM_MMFF94_ENERGY>
21.2917

>  <PUBCHEM_FEATURE_SELFOVERLAP>
50.894

>  <PUBCHEM_SHAPE_FINGERPRINT>
10062212 137 18338790109833023619
11640471 11 17823430464157310204
13538477 17 18334570282594605042
14115302 16 18335699481004429023
14993402 34 18187928339683679406
15775835 57 18260559904629766484
16945 1 18340778082358437947
17802600 8 18261385633398388900
17862501 102 18338228272007223554
18186145 218 18408608041313143461
192875 21 18410006637383965324
20645476 183 18187076252595506835
21524375 3 18333733489768519475
23402539 116 18201710734874874452
23419403 2 16536722669594432170
23557571 272 17489867120170046770
23559900 14 18272087249550677728
2748010 2 16032660553244265307
353137 74 18410576201586879465
474 4 17677053563657309804
5262128 65 17702128961242040124
537710 114 18410572907668599745
53812653 8 18412546496559348171
7364860 26 17839465487959327439
7832392 63 17907866102070327712
9981440 41 17612874108177617872

>  <PUBCHEM_SHAPE_MULTIPOLES>
313.51
6.46
2.11
1.04
0.23
0.15
0.25
0.21
1.49
0.41
-0.22
-0.24
0.17
-0.9

>  <PUBCHEM_SHAPE_SELFOVERLAP>
660.914

>  <PUBCHEM_SHAPE_VOLUME>
180.8

>  <PUBCHEM_COORDINATE_TYPE>
2
5
10

$$$$
11737641
 OpenBabel12092211553D

 27 28  0  0  1  0  0  0  0  0999 V2000
   -4.4920   -0.5490   -0.8566 Br  0  0  0  0  0  0  0  0  0  0  0  0
    1.9310    1.5901    0.2260 O   0  0  0  0  0  0  0  0  0  0  0  0
    2.7090    1.1322   -1.8539 O   0  0  0  0  0  0  0  0  0  0  0  0
   -1.4911   -1.8961   -0.2929 N   0  0  0  0  0  0  0  0  0  0  0  0
    4.1785   -0.5301    0.4072 N   0  0  0  0  0  0  0  0  0  0  0  0
    0.4131   -1.0857    0.5097 C   0  0  0  0  0  0  0  0  0  0  0  0
    1.8142   -0.9904    0.9673 C   0  0  0  0  0  0  0  0  0  0  0  0
   -0.5465   -0.0352    0.4958 C   0  0  0  0  0  0  0  0  0  0  0  0
    2.8208   -0.5992   -0.1394 C   0  0  1  0  0  0  0  0  0  0  0  0
   -1.7324   -0.5700   -0.0122 C   0  0  0  0  0  0  0  0  0  0  0  0
   -0.1972   -2.2169    0.0190 C   0  0  0  0  0  0  0  0  0  0  0  0
   -0.5200    1.3237    0.8677 C   0  0  0  0  0  0  0  0  0  0  0  0
   -2.8977    0.1890   -0.1673 C   0  0  0  0  0  0  0  0  0  0  0  0
   -1.6782    2.0952    0.7181 C   0  0  0  0  0  0  0  0  0  0  0  0
    2.5047    0.7774   -0.6998 C   0  0  0  0  0  0  0  0  0  0  0  0
   -2.8476    1.5346    0.2083 C   0  0  0  0  0  0  0  0  0  0  0  0
    2.1153   -1.9556    1.3976 H   0  0  0  0  0  0  0  0  0  0  0  0
    1.8749   -0.2669    1.7921 H   0  0  0  0  0  0  0  0  0  0  0  0
    2.8085   -1.3310   -0.9555 H   0  0  0  0  0  0  0  0  0  0  0  0
    0.1713   -3.2212   -0.1372 H   0  0  0  0  0  0  0  0  0  0  0  0
   -2.1714   -2.5387   -0.6744 H   0  0  0  0  0  0  0  0  0  0  0  0
    0.3797    1.7776    1.2726 H   0  0  0  0  0  0  0  0  0  0  0  0
   -1.6638    3.1434    1.0046 H   0  0  0  0  0  0  0  0  0  0  0  0
   -3.7274    2.1665    0.1069 H   0  0  0  0  0  0  0  0  0  0  0  0
    4.8418   -0.3571   -0.3476 H   0  0  0  0  0  0  0  0  0  0  0  0
    4.4315   -1.4339    0.8048 H   0  0  0  0  0  0  0  0  0  0  0  0
    1.7227    2.4746   -0.1434 H   0  0  0  0  0  0  0  0  0  0  0  0
  1 13  1  0  0  0  0
  2 15  1  0  0  0  0
  2 27  1  0  0  0  0
  3 15  2  0  0  0  0
  4 10  1  0  0  0  0
  4 11  1  0  0  0  0
  4 21  1  0  0  0  0
  5  9  1  0  0  0  0
  5 25  1  0  0  0  0
  5 26  1  0  0  0  0
  6  7  1  0  0  0  0
  6  8  1  0  0  0  0
  6 11  2  0  0  0  0
  7  9  1  0  0  0  0
  7 17  1  0  0  0  0
  7 18  1  0  0  0  0
  8 10  2  0  0  0  0
  8 12  1  0  0  0  0
  9 15  1  0  0  0  0
  9 19  1  6  0  0  0
 10 13  1  0  0  0  0
 11 20  1  0  0  0  0
 12 14  2  0  0  0  0
 12 22  1  0  0  0  0
 13 16  2  0  0  0  0
 14 16  1  0  0  0  0
 14 23  1  0  0  0  0
 16 24  1  0  0  0  0
M  END
>  <PUBCHEM_COMPOUND_CID>
11737641

>  <PUBCHEM_CONFORMER_RMSD>
0.6

>  <PUBCHEM_CONFORMER_DIVERSEORDER>
1
16
19
14
7
13
11
15
18
6
5
12
8
3
17
4
9
2
10

>  <PUBCHEM_MMFF94_PARTIAL_CHARGES>
23
1 -0.11
10 -0.15
11 -0.3
12 -0.15
13 0.11
14 -0.15
15 0.66
16 -0.15
2 -0.65
20 0.15
21 0.27
22 0.15
23 0.15
24 0.15
25 0.36
26 0.36
27 0.5
3 -0.57
4 0.03
5 -0.99
6 -0.18
7 0.18
9 0.33

>  <PUBCHEM_EFFECTIVE_ROTOR_COUNT>
3

>  <PUBCHEM_PHARMACOPHORE_FEATURES>
10
1 1 hydrophobe
1 2 acceptor
1 3 acceptor
1 4 cation
1 4 donor
1 5 cation
1 5 donor
3 2 3 15 anion
5 4 6 8 10 11 rings
6 8 10 12 13 14 16 rings

>  <PUBCHEM_HEAVY_ATOM_COUNT>
16

>  <PUBCHEM_ATOM_DEF_STEREO_COUNT>
1

>  <PUBCHEM_ATOM_UDEF_STEREO_COUNT>
0

>  <PUBCHEM_BOND_DEF_STEREO_COUNT>
0

>  <PUBCHEM_BOND_UDEF_STEREO_COUNT>
0

>  <PUBCHEM_ISOTOPIC_ATOM_COUNT>
0

>  <PUBCHEM_COMPONENT_COUNT>
1

>  <PUBCHEM_CACTVS_TAUTO_COUNT>
1

>  <PUBCHEM_CONFORMER_ID>
00B31A2900000001

>  <PUBCHEM_MMFF94_ENERGY>
21.2917

>  <PUBCHEM_FEATURE_SELFOVERLAP>
50.894

>  <PUBCHEM_SHAPE_FINGERPRINT>
10062212 137 18338790109833023619
11640471 11 17823430464157310204
13538477 17 18334570282594605042
14115302 16 18335699481004429023
14993402 34 18187928339683679406
15775835 57 18260559904629766484
16945 1 18340778082358437947
17802600 8 18261385633398388900
17862501 102 18338228272007223554
18186145 218 18408608041313143461
192875 21 18410006637383965324
20645476 183 18187076252595506835
21524375 3 18333733489768519475
23402539 116 18201710734874874452
23419403 2 16536722669594432170
23557571 272 17489867120170046770
23559900 14 18272087249550677728
2748010 2 16032660553244265307
353137 74 18410576201586879465
474 4 17677053563657309804
5262128 65 17702128961242040124
537710 114 18410572907668599745
53812653 8 18412546496559348171
7364860 26 17839465487959327439
7832392 63 17907866102070327712
9981440 41 17612874108177617872

>  <PUBCHEM_SHAPE_MULTIPOLES>
313.51
6.46
2.11
1.04
0.23
0.15
0.25
0.21
1.49
0.41
-0.22
-0.24
0.17
-0.9

>  <PUBCHEM_SHAPE_SELFOVERLAP>
660.914

>  <PUBCHEM_SHAPE_VOLUME>
180.8

>  <PUBCHEM_COORDINATE_TYPE>
2
5
10

$$$$
11737641
 OpenBabel12092211553D

 27 28  0  0  1  0  0  0  0  0999 V2000
   -4.4920   -0.5490   -0.8566 Br  0  0  0  0  0  0  0  0  0  0  0  0
    2.8870   -4.5737    0.9930 O   0  0  0  0  0  0  0  0  0  0  0  0
    2.0341   -3.2749   -0.6582 O   0  0  0  0  0  0  0  0  0  0  0  0
   -1.4911   -1.8961   -0.2929 N   0  0  0  0  0  0  0  0  0  0  0  0
    3.7735   -2.1119    1.9767 N   0  0  0  0  0  0  0  0  0  0  0  0
    0.4131   -1.0857    0.5097 C   0  0  0  0  0  0  0  0  0  0  0  0
    1.8142   -0.9904    0.9673 C   0  0  0  0  0  0  0  0  0  0  0  0
   -0.5465   -0.0352    0.4958 C   0  0  0  0  0  0  0  0  0  0  0  0
    2.3844   -2.3036    1.5517 C   0  0  1  0  0  0  0  0  0  0  0  0
   -1.7324   -0.5700   -0.0122 C   0  0  0  0  0  0  0  0  0  0  0  0
   -0.1972   -2.2169    0.0190 C   0  0  0  0  0  0  0  0  0  0  0  0
   -0.5200    1.3237    0.8677 C   0  0  0  0  0  0  0  0  0  0  0  0
   -2.8977    0.1890   -0.1673 C   0  0  0  0  0  0  0  0  0  0  0  0
   -1.6782    2.0952    0.7181 C   0  0  0  0  0  0  0  0  0  0  0  0
    2.3958   -3.4047    0.5046 C   0  0  0  0  0  0  0  0  0  0  0  0
   -2.8476    1.5346    0.2083 C   0  0  0  0  0  0  0  0  0  0  0  0
    1.8881   -0.2006    1.7276 H   0  0  0  0  0  0  0  0  0  0  0  0
    2.4438   -0.6560    0.1311 H   0  0  0  0  0  0  0  0  0  0  0  0
    1.7963   -2.6350    2.4154 H   0  0  0  0  0  0  0  0  0  0  0  0
    0.1713   -3.2212   -0.1372 H   0  0  0  0  0  0  0  0  0  0  0  0
   -2.1714   -2.5387   -0.6744 H   0  0  0  0  0  0  0  0  0  0  0  0
    0.3797    1.7776    1.2726 H   0  0  0  0  0  0  0  0  0  0  0  0
   -1.6638    3.1434    1.0046 H   0  0  0  0  0  0  0  0  0  0  0  0
   -3.7274    2.1665    0.1069 H   0  0  0  0  0  0  0  0  0  0  0  0
    4.1088   -2.9571    2.4380 H   0  0  0  0  0  0  0  0  0  0  0  0
    3.8161   -1.3717    2.6763 H   0  0  0  0  0  0  0  0  0  0  0  0
    2.8986   -5.2786    0.3109 H   0  0  0  0  0  0  0  0  0  0  0  0
  1 13  1  0  0  0  0
  2 15  1  0  0  0  0
  2 27  1  0  0  0  0
  3 15  2  0  0  0  0
  4 10  1  0  0  0  0
  4 11  1  0  0  0  0
  4 21  1  0  0  0  0
  5  9  1  0  0  0  0
  5 25  1  0  0  0  0
  5 26  1  0  0  0  0
  6  7  1  0  0  0  0
  6  8  1  0  0  0  0
  6 11  2  0  0  0  0
  7  9  1  0  0  0  0
  7 17  1  0  0  0  0
  7 18  1  0  0  0  0
  8 10  2  0  0  0  0
  8 12  1  0  0  0  0
  9 15  1  0  0  0  0
  9 19  1  1  0  0  0
 10 13  1  0  0  0  0
 11 20  1  0  0  0  0
 12 14  2  0  0  0  0
 12 22  1  0  0  0  0
 13 16  2  0  0  0  0
 14 16  1  0  0  0  0
 14 23  1  0  0  0  0
 16 24  1  0  0  0  0
M  END
>  <PUBCHEM_COMPOUND_CID>
11737641

>  <PUBCHEM_CONFORMER_RMSD>
0.6

>  <PUBCHEM_CONFORMER_DIVERSEORDER>
1
16
19
14
7
13
11
15
18
6
5
12
8
3
17
4
9
2
10

>  <PUBCHEM_MMFF94_PARTIAL_CHARGES>
23
1 -0.11
10 -0.15
11 -0.3
12 -0.15
13 0.11
14 -0.15
15 0.66
16 -0.15
2 -0.65
20 0.15
21 0.27
22 0.15
23 0.15
24 0.15
25 0.36
26 0.36
27 0.5
3 -0.57
4 0.03
5 -0.99
6 -0.18
7 0.18
9 0.33

>  <PUBCHEM_EFFECTIVE_ROTOR_COUNT>
3

>  <PUBCHEM_PHARMACOPHORE_FEATURES>
10
1 1 hydrophobe
1 2 acceptor
1 3 acceptor
1 4 cation
1 4 donor
1 5 cation
1 5 donor
3 2 3 15 anion
5 4 6 8 10 11 rings
6 8 10 12 13 14 16 rings

>  <PUBCHEM_HEAVY_ATOM_COUNT>
16

>  <PUBCHEM_ATOM_DEF_STEREO_COUNT>
1

>  <PUBCHEM_ATOM_UDEF_STEREO_COUNT>
0

>  <PUBCHEM_BOND_DEF_STEREO_COUNT>
0

>  <PUBCHEM_BOND_UDEF_STEREO_COUNT>
0

>  <PUBCHEM_ISOTOPIC_ATOM_COUNT>
0

>  <PUBCHEM_COMPONENT_COUNT>
1

>  <PUBCHEM_CACTVS_TAUTO_COUNT>
1

>  <PUBCHEM_CONFORMER_ID>
00B31A2900000001

>  <PUBCHEM_MMFF94_ENERGY>
21.2917

>  <PUBCHEM_FEATURE_SELFOVERLAP>
50.894

>  <PUBCHEM_SHAPE_FINGERPRINT>
10062212 137 18338790109833023619
11640471 11 17823430464157310204
13538477 17 18334570282594605042
14115302 16 18335699481004429023
14993402 34 18187928339683679406
15775835 57 18260559904629766484
16945 1 18340778082358437947
17802600 8 18261385633398388900
17862501 102 18338228272007223554
18186145 218 18408608041313143461
192875 21 18410006637383965324
20645476 183 18187076252595506835
21524375 3 18333733489768519475
23402539 116 18201710734874874452
23419403 2 16536722669594432170
23557571 272 17489867120170046770
23559900 14 18272087249550677728
2748010 2 16032660553244265307
353137 74 18410576201586879465
474 4 17677053563657309804
5262128 65 17702128961242040124
537710 114 18410572907668599745
53812653 8 18412546496559348171
7364860 26 17839465487959327439
7832392 63 17907866102070327712
9981440 41 17612874108177617872

>  <PUBCHEM_SHAPE_MULTIPOLES>
313.51
6.46
2.11
1.04
0.23
0.15
0.25
0.21
1.49
0.41
-0.22
-0.24
0.17
-0.9

>  <PUBCHEM_SHAPE_SELFOVERLAP>
660.914

>  <PUBCHEM_SHAPE_VOLUME>
180.8

>  <PUBCHEM_COORDINATE_TYPE>
2
5
10

$$$$
11737641
 OpenBabel12092211553D

 27 28  0  0  1  0  0  0  0  0999 V2000
   -4.4920   -0.5490   -0.8566 Br  0  0  0  0  0  0  0  0  0  0  0  0
    2.1091   -3.5638    0.2641 O   0  0  0  0  0  0  0  0  0  0  0  0
    2.9499   -3.1006   -1.7900 O   0  0  0  0  0  0  0  0  0  0  0  0
   -1.4911   -1.8961   -0.2929 N   0  0  0  0  0  0  0  0  0  0  0  0
    2.7340   -0.4108   -1.2539 N   0  0  0  0  0  0  0  0  0  0  0  0
    0.4131   -1.0857    0.5097 C   0  0  0  0  0  0  0  0  0  0  0  0
    1.8142   -0.9904    0.9673 C   0  0  0  0  0  0  0  0  0  0  0  0
   -0.5465   -0.0352    0.4958 C   0  0  0  0  0  0  0  0  0  0  0  0
    2.8633   -1.3270   -0.1178 C   0  0  1  0  0  0  0  0  0  0  0  0
   -1.7324   -0.5700   -0.0122 C   0  0  0  0  0  0  0  0  0  0  0  0
   -0.1972   -2.2169    0.0190 C   0  0  0  0  0  0  0  0  0  0  0  0
   -0.5200    1.3237    0.8677 C   0  0  0  0  0  0  0  0  0  0  0  0
   -2.8977    0.1890   -0.1673 C   0  0  0  0  0  0  0  0  0  0  0  0
   -1.6782    2.0952    0.7181 C   0  0  0  0  0  0  0  0  0  0  0  0
    2.6519   -2.7300   -0.6615 C   0  0  0  0  0  0  0  0  0  0  0  0
   -2.8476    1.5346    0.2083 C   0  0  0  0  0  0  0  0  0  0  0  0
    1.9569   -1.6657    1.8222 H   0  0  0  0  0  0  0  0  0  0  0  0
    1.9979    0.0211    1.3553 H   0  0  0  0  0  0  0  0  0  0  0  0
    3.8803   -1.2464    0.2834 H   0  0  0  0  0  0  0  0  0  0  0  0
    0.1713   -3.2212   -0.1372 H   0  0  0  0  0  0  0  0  0  0  0  0
   -2.1714   -2.5387   -0.6744 H   0  0  0  0  0  0  0  0  0  0  0  0
    0.3797    1.7776    1.2726 H   0  0  0  0  0  0  0  0  0  0  0  0
   -1.6638    3.1434    1.0046 H   0  0  0  0  0  0  0  0  0  0  0  0
   -3.7274    2.1665    0.1069 H   0  0  0  0  0  0  0  0  0  0  0  0
    3.4843   -0.5869   -1.9213 H   0  0  0  0  0  0  0  0  0  0  0  0
    2.8597    0.5486   -0.9332 H   0  0  0  0  0  0  0  0  0  0  0  0
    1.9816   -4.4696   -0.0902 H   0  0  0  0  0  0  0  0  0  0  0  0
  1 13  1  0  0  0  0
  2 15  1  0  0  0  0
  2 27  1  0  0  0  0
  3 15  2  0  0  0  0
  4 10  1  0  0  0  0
  4 11  1  0  0  0  0
  4 21  1  0  0  0  0
  5  9  1  0  0  0  0
  5 25  1  0  0  0  0
  5 26  1  0  0  0  0
  6  7  1  0  0  0  0
  6  8  1  0  0  0  0
  6 11  2  0  0  0  0
  7  9  1  0  0  0  0
  7 17  1  0  0  0  0
  7 18  1  0  0  0  0
  8 10  2  0  0  0  0
  8 12  1  0  0  0  0
  9 15  1  0  0  0  0
  9 19  1  1  0  0  0
 10 13  1  0  0  0  0
 11 20  1  0  0  0  0
 12 14  2  0  0  0  0
 12 22  1  0  0  0  0
 13 16  2  0  0  0  0
 14 16  1  0  0  0  0
 14 23  1  0  0  0  0
 16 24  1  0  0  0  0
M  END
>  <PUBCHEM_COMPOUND_CID>
11737641

>  <PUBCHEM_CONFORMER_RMSD>
0.6

>  <PUBCHEM_CONFORMER_DIVERSEORDER>
1
16
19
14
7
13
11
15
18
6
5
12
8
3
17
4
9
2
10

>  <PUBCHEM_MMFF94_PARTIAL_CHARGES>
23
1 -0.11
10 -0.15
11 -0.3
12 -0.15
13 0.11
14 -0.15
15 0.66
16 -0.15
2 -0.65
20 0.15
21 0.27
22 0.15
23 0.15
24 0.15
25 0.36
26 0.36
27 0.5
3 -0.57
4 0.03
5 -0.99
6 -0.18
7 0.18
9 0.33

>  <PUBCHEM_EFFECTIVE_ROTOR_COUNT>
3

>  <PUBCHEM_PHARMACOPHORE_FEATURES>
10
1 1 hydrophobe
1 2 acceptor
1 3 acceptor
1 4 cation
1 4 donor
1 5 cation
1 5 donor
3 2 3 15 anion
5 4 6 8 10 11 rings
6 8 10 12 13 14 16 rings

>  <PUBCHEM_HEAVY_ATOM_COUNT>
16

>  <PUBCHEM_ATOM_DEF_STEREO_COUNT>
1

>  <PUBCHEM_ATOM_UDEF_STEREO_COUNT>
0

>  <PUBCHEM_BOND_DEF_STEREO_COUNT>
0

>  <PUBCHEM_BOND_UDEF_STEREO_COUNT>
0

>  <PUBCHEM_ISOTOPIC_ATOM_COUNT>
0

>  <PUBCHEM_COMPONENT_COUNT>
1

>  <PUBCHEM_CACTVS_TAUTO_COUNT>
1

>  <PUBCHEM_CONFORMER_ID>
00B31A2900000001

>  <PUBCHEM_MMFF94_ENERGY>
21.2917

>  <PUBCHEM_FEATURE_SELFOVERLAP>
50.894

>  <PUBCHEM_SHAPE_FINGERPRINT>
10062212 137 18338790109833023619
11640471 11 17823430464157310204
13538477 17 18334570282594605042
14115302 16 18335699481004429023
14993402 34 18187928339683679406
15775835 57 18260559904629766484
16945 1 18340778082358437947
17802600 8 18261385633398388900
17862501 102 18338228272007223554
18186145 218 18408608041313143461
192875 21 18410006637383965324
20645476 183 18187076252595506835
21524375 3 18333733489768519475
23402539 116 18201710734874874452
23419403 2 16536722669594432170
23557571 272 17489867120170046770
23559900 14 18272087249550677728
2748010 2 16032660553244265307
353137 74 18410576201586879465
474 4 17677053563657309804
5262128 65 17702128961242040124
537710 114 18410572907668599745
53812653 8 18412546496559348171
7364860 26 17839465487959327439
7832392 63 17907866102070327712
9981440 41 17612874108177617872

>  <PUBCHEM_SHAPE_MULTIPOLES>
313.51
6.46
2.11
1.04
0.23
0.15
0.25
0.21
1.49
0.41
-0.22
-0.24
0.17
-0.9

>  <PUBCHEM_SHAPE_SELFOVERLAP>
660.914

>  <PUBCHEM_SHAPE_VOLUME>
180.8

>  <PUBCHEM_COORDINATE_TYPE>
2
5
10

$$$$
11737641
 OpenBabel12092211553D

 27 28  0  0  1  0  0  0  0  0999 V2000
   -4.4920   -0.5490   -0.8566 Br  0  0  0  0  0  0  0  0  0  0  0  0
    2.0638   -0.4806    4.4124 O   0  0  0  0  0  0  0  0  0  0  0  0
    0.0444   -0.4260    3.3829 O   0  0  0  0  0  0  0  0  0  0  0  0
   -1.4911   -1.8961   -0.2929 N   0  0  0  0  0  0  0  0  0  0  0  0
    3.4639    0.0771    2.4689 N   0  0  0  0  0  0  0  0  0  0  0  0
    0.4131   -1.0857    0.5097 C   0  0  0  0  0  0  0  0  0  0  0  0
    1.8142   -0.9904    0.9673 C   0  0  0  0  0  0  0  0  0  0  0  0
   -0.5465   -0.0352    0.4958 C   0  0  0  0  0  0  0  0  0  0  0  0
    2.0508    0.0550    2.0819 C   0  0  1  0  0  0  0  0  0  0  0  0
   -1.7324   -0.5700   -0.0122 C   0  0  0  0  0  0  0  0  0  0  0  0
   -0.1972   -2.2169    0.0190 C   0  0  0  0  0  0  0  0  0  0  0  0
   -0.5200    1.3237    0.8677 C   0  0  0  0  0  0  0  0  0  0  0  0
   -2.8977    0.1890   -0.1673 C   0  0  0  0  0  0  0  0  0  0  0  0
   -1.6782    2.0952    0.7181 C   0  0  0  0  0  0  0  0  0  0  0  0
    1.2609   -0.2950    3.3319 C   0  0  0  0  0  0  0  0  0  0  0  0
   -2.8476    1.5346    0.2083 C   0  0  0  0  0  0  0  0  0  0  0  0
    2.4541   -0.7460    0.1082 H   0  0  0  0  0  0  0  0  0  0  0  0
    2.1477   -1.9787    1.3131 H   0  0  0  0  0  0  0  0  0  0  0  0
    1.7642    1.0578    1.7446 H   0  0  0  0  0  0  0  0  0  0  0  0
    0.1713   -3.2212   -0.1372 H   0  0  0  0  0  0  0  0  0  0  0  0
   -2.1714   -2.5387   -0.6744 H   0  0  0  0  0  0  0  0  0  0  0  0
    0.3797    1.7776    1.2726 H   0  0  0  0  0  0  0  0  0  0  0  0
   -1.6638    3.1434    1.0046 H   0  0  0  0  0  0  0  0  0  0  0  0
   -3.7274    2.1665    0.1069 H   0  0  0  0  0  0  0  0  0  0  0  0
    3.6221    0.8280    3.1402 H   0  0  0  0  0  0  0  0  0  0  0  0
    4.0359    0.2997    1.6551 H   0  0  0  0  0  0  0  0  0  0  0  0
    1.5491   -0.7132    5.2144 H   0  0  0  0  0  0  0  0  0  0  0  0
  1 13  1  0  0  0  0
  2 15  1  0  0  0  0
  2 27  1  0  0  0  0
  3 15  2  0  0  0  0
  4 10  1  0  0  0  0
  4 11  1  0  0  0  0
  4 21  1  0  0  0  0
  5  9  1  0  0  0  0
  5 25  1  0  0  0  0
  5 26  1  0  0  0  0
  6  7  1  0  0  0  0
  6  8  1  0  0  0  0
  6 11  2  0  0  0  0
  7  9  1  0  0  0  0
  7 17  1  0  0  0  0
  7 18  1  0  0  0  0
  8 10  2  0  0  0  0
  8 12  1  0  0  0  0
  9 15  1  0  0  0  0
  9 19  1  6  0  0  0
 10 13  1  0  0  0  0
 11 20  1  0  0  0  0
 12 14  2  0  0  0  0
 12 22  1  0  0  0  0
 13 16  2  0  0  0  0
 14 16  1  0  0  0  0
 14 23  1  0  0  0  0
 16 24  1  0  0  0  0
M  END
>  <PUBCHEM_COMPOUND_CID>
11737641

>  <PUBCHEM_CONFORMER_RMSD>
0.6

>  <PUBCHEM_CONFORMER_DIVERSEORDER>
1
16
19
14
7
13
11
15
18
6
5
12
8
3
17
4
9
2
10

>  <PUBCHEM_MMFF94_PARTIAL_CHARGES>
23
1 -0.11
10 -0.15
11 -0.3
12 -0.15
13 0.11
14 -0.15
15 0.66
16 -0.15
2 -0.65
20 0.15
21 0.27
22 0.15
23 0.15
24 0.15
25 0.36
26 0.36
27 0.5
3 -0.57
4 0.03
5 -0.99
6 -0.18
7 0.18
9 0.33

>  <PUBCHEM_EFFECTIVE_ROTOR_COUNT>
3

>  <PUBCHEM_PHARMACOPHORE_FEATURES>
10
1 1 hydrophobe
1 2 acceptor
1 3 acceptor
1 4 cation
1 4 donor
1 5 cation
1 5 donor
3 2 3 15 anion
5 4 6 8 10 11 rings
6 8 10 12 13 14 16 rings

>  <PUBCHEM_HEAVY_ATOM_COUNT>
16

>  <PUBCHEM_ATOM_DEF_STEREO_COUNT>
1

>  <PUBCHEM_ATOM_UDEF_STEREO_COUNT>
0

>  <PUBCHEM_BOND_DEF_STEREO_COUNT>
0

>  <PUBCHEM_BOND_UDEF_STEREO_COUNT>
0

>  <PUBCHEM_ISOTOPIC_ATOM_COUNT>
0

>  <PUBCHEM_COMPONENT_COUNT>
1

>  <PUBCHEM_CACTVS_TAUTO_COUNT>
1

>  <PUBCHEM_CONFORMER_ID>
00B31A2900000001

>  <PUBCHEM_MMFF94_ENERGY>
21.2917

>  <PUBCHEM_FEATURE_SELFOVERLAP>
50.894

>  <PUBCHEM_SHAPE_FINGERPRINT>
10062212 137 18338790109833023619
11640471 11 17823430464157310204
13538477 17 18334570282594605042
14115302 16 18335699481004429023
14993402 34 18187928339683679406
15775835 57 18260559904629766484
16945 1 18340778082358437947
17802600 8 18261385633398388900
17862501 102 18338228272007223554
18186145 218 18408608041313143461
192875 21 18410006637383965324
20645476 183 18187076252595506835
21524375 3 18333733489768519475
23402539 116 18201710734874874452
23419403 2 16536722669594432170
23557571 272 17489867120170046770
23559900 14 18272087249550677728
2748010 2 16032660553244265307
353137 74 18410576201586879465
474 4 17677053563657309804
5262128 65 17702128961242040124
537710 114 18410572907668599745
53812653 8 18412546496559348171
7364860 26 17839465487959327439
7832392 63 17907866102070327712
9981440 41 17612874108177617872

>  <PUBCHEM_SHAPE_MULTIPOLES>
313.51
6.46
2.11
1.04
0.23
0.15
0.25
0.21
1.49
0.41
-0.22
-0.24
0.17
-0.9

>  <PUBCHEM_SHAPE_SELFOVERLAP>
660.914

>  <PUBCHEM_SHAPE_VOLUME>
180.8

>  <PUBCHEM_COORDINATE_TYPE>
2
5
10

$$$$
11737641
 OpenBabel12092211553D

 27 28  0  0  1  0  0  0  0  0999 V2000
   -4.4920   -0.5490   -0.8566 Br  0  0  0  0  0  0  0  0  0  0  0  0
   -0.0766   -0.3463    3.0973 O   0  0  0  0  0  0  0  0  0  0  0  0
    1.7448   -0.4886    4.4400 O   0  0  0  0  0  0  0  0  0  0  0  0
   -1.4911   -1.8961   -0.2929 N   0  0  0  0  0  0  0  0  0  0  0  0
    3.4639    0.0771    2.4689 N   0  0  0  0  0  0  0  0  0  0  0  0
    0.4131   -1.0857    0.5097 C   0  0  0  0  0  0  0  0  0  0  0  0
    1.8142   -0.9904    0.9673 C   0  0  0  0  0  0  0  0  0  0  0  0
   -0.5465   -0.0352    0.4958 C   0  0  0  0  0  0  0  0  0  0  0  0
    2.0508    0.0550    2.0819 C   0  0  1  0  0  0  0  0  0  0  0  0
   -1.7324   -0.5700   -0.0122 C   0  0  0  0  0  0  0  0  0  0  0  0
   -0.1972   -2.2169    0.0190 C   0  0  0  0  0  0  0  0  0  0  0  0
   -0.5200    1.3237    0.8677 C   0  0  0  0  0  0  0  0  0  0  0  0
   -2.8977    0.1890   -0.1673 C   0  0  0  0  0  0  0  0  0  0  0  0
   -1.6782    2.0952    0.7181 C   0  0  0  0  0  0  0  0  0  0  0  0
    1.2609   -0.2950    3.3319 C   0  0  0  0  0  0  0  0  0  0  0  0
   -2.8476    1.5346    0.2083 C   0  0  0  0  0  0  0  0  0  0  0  0
    2.4541   -0.7460    0.1082 H   0  0  0  0  0  0  0  0  0  0  0  0
    2.1477   -1.9787    1.3131 H   0  0  0  0  0  0  0  0  0  0  0  0
    1.7642    1.0578    1.7446 H   0  0  0  0  0  0  0  0  0  0  0  0
    0.1713   -3.2212   -0.1372 H   0  0  0  0  0  0  0  0  0  0  0  0
   -2.1714   -2.5387   -0.6744 H   0  0  0  0  0  0  0  0  0  0  0  0
    0.3797    1.7776    1.2726 H   0  0  0  0  0  0  0  0  0  0  0  0
   -1.6638    3.1434    1.0046 H   0  0  0  0  0  0  0  0  0  0  0  0
   -3.7274    2.1665    0.1069 H   0  0  0  0  0  0  0  0  0  0  0  0
    3.6221    0.8280    3.1402 H   0  0  0  0  0  0  0  0  0  0  0  0
    4.0359    0.2997    1.6551 H   0  0  0  0  0  0  0  0  0  0  0  0
   -0.5818   -0.5655    3.9091 H   0  0  0  0  0  0  0  0  0  0  0  0
  1 13  1  0  0  0  0
  2 15  1  0  0  0  0
  2 27  1  0  0  0  0
  3 15  2  0  0  0  0
  4 10  1  0  0  0  0
  4 11  1  0  0  0  0
  4 21  1  0  0  0  0
  5  9  1  0  0  0  0
  5 25  1  0  0  0  0
  5 26  1  0  0  0  0
  6  7  1  0  0  0  0
  6  8  1  0  0  0  0
  6 11  2  0  0  0  0
  7  9  1  0  0  0  0
  7 17  1  0  0  0  0
  7 18  1  0  0  0  0
  8 10  2  0  0  0  0
  8 12  1  0  0  0  0
  9 15  1  0  0  0  0
  9 19  1  6  0  0  0
 10 13  1  0  0  0  0
 11 20  1  0  0  0  0
 12 14  2  0  0  0  0
 12 22  1  0  0  0  0
 13 16  2  0  0  0  0
 14 16  1  0  0  0  0
 14 23  1  0  0  0  0
 16 24  1  0  0  0  0
M  END
>  <PUBCHEM_COMPOUND_CID>
11737641

>  <PUBCHEM_CONFORMER_RMSD>
0.6

>  <PUBCHEM_CONFORMER_DIVERSEORDER>
1
16
19
14
7
13
11
15
18
6
5
12
8
3
17
4
9
2
10

>  <PUBCHEM_MMFF94_PARTIAL_CHARGES>
23
1 -0.11
10 -0.15
11 -0.3
12 -0.15
13 0.11
14 -0.15
15 0.66
16 -0.15
2 -0.65
20 0.15
21 0.27
22 0.15
23 0.15
24 0.15
25 0.36
26 0.36
27 0.5
3 -0.57
4 0.03
5 -0.99
6 -0.18
7 0.18
9 0.33

>  <PUBCHEM_EFFECTIVE_ROTOR_COUNT>
3

>  <PUBCHEM_PHARMACOPHORE_FEATURES>
10
1 1 hydrophobe
1 2 acceptor
1 3 acceptor
1 4 cation
1 4 donor
1 5 cation
1 5 donor
3 2 3 15 anion
5 4 6 8 10 11 rings
6 8 10 12 13 14 16 rings

>  <PUBCHEM_HEAVY_ATOM_COUNT>
16

>  <PUBCHEM_ATOM_DEF_STEREO_COUNT>
1

>  <PUBCHEM_ATOM_UDEF_STEREO_COUNT>
0

>  <PUBCHEM_BOND_DEF_STEREO_COUNT>
0

>  <PUBCHEM_BOND_UDEF_STEREO_COUNT>
0

>  <PUBCHEM_ISOTOPIC_ATOM_COUNT>
0

>  <PUBCHEM_COMPONENT_COUNT>
1

>  <PUBCHEM_CACTVS_TAUTO_COUNT>
1

>  <PUBCHEM_CONFORMER_ID>
00B31A2900000001

>  <PUBCHEM_MMFF94_ENERGY>
21.2917

>  <PUBCHEM_FEATURE_SELFOVERLAP>
50.894

>  <PUBCHEM_SHAPE_FINGERPRINT>
10062212 137 18338790109833023619
11640471 11 17823430464157310204
13538477 17 18334570282594605042
14115302 16 18335699481004429023
14993402 34 18187928339683679406
15775835 57 18260559904629766484
16945 1 18340778082358437947
17802600 8 18261385633398388900
17862501 102 18338228272007223554
18186145 218 18408608041313143461
192875 21 18410006637383965324
20645476 183 18187076252595506835
21524375 3 18333733489768519475
23402539 116 18201710734874874452
23419403 2 16536722669594432170
23557571 272 17489867120170046770
23559900 14 18272087249550677728
2748010 2 16032660553244265307
353137 74 18410576201586879465
474 4 17677053563657309804
5262128 65 17702128961242040124
537710 114 18410572907668599745
53812653 8 18412546496559348171
7364860 26 17839465487959327439
7832392 63 17907866102070327712
9981440 41 17612874108177617872

>  <PUBCHEM_SHAPE_MULTIPOLES>
313.51
6.46
2.11
1.04
0.23
0.15
0.25
0.21
1.49
0.41
-0.22
-0.24
0.17
-0.9

>  <PUBCHEM_SHAPE_SELFOVERLAP>
660.914

>  <PUBCHEM_SHAPE_VOLUME>
180.8

>  <PUBCHEM_COORDINATE_TYPE>
2
5
10

$$$$
11737641
 OpenBabel12092211553D

 27 28  0  0  1  0  0  0  0  0999 V2000
   -4.4920   -0.5490   -0.8566 Br  0  0  0  0  0  0  0  0  0  0  0  0
    2.8379    0.8195   -2.0643 O   0  0  0  0  0  0  0  0  0  0  0  0
    2.5716   -1.4131   -1.7722 O   0  0  0  0  0  0  0  0  0  0  0  0
   -1.4911   -1.8961   -0.2929 N   0  0  0  0  0  0  0  0  0  0  0  0
    2.0996    1.3781    0.3158 N   0  0  0  0  0  0  0  0  0  0  0  0
    0.4131   -1.0857    0.5097 C   0  0  0  0  0  0  0  0  0  0  0  0
    1.8142   -0.9904    0.9673 C   0  0  0  0  0  0  0  0  0  0  0  0
   -0.5465   -0.0352    0.4958 C   0  0  0  0  0  0  0  0  0  0  0  0
    2.6707    0.0348    0.1884 C   0  0  1  0  0  0  0  0  0  0  0  0
   -1.7324   -0.5700   -0.0122 C   0  0  0  0  0  0  0  0  0  0  0  0
   -0.1972   -2.2169    0.0190 C   0  0  0  0  0  0  0  0  0  0  0  0
   -0.5200    1.3237    0.8677 C   0  0  0  0  0  0  0  0  0  0  0  0
   -2.8977    0.1890   -0.1673 C   0  0  0  0  0  0  0  0  0  0  0  0
   -1.6782    2.0952    0.7181 C   0  0  0  0  0  0  0  0  0  0  0  0
    2.6931   -0.2916   -1.2955 C   0  0  0  0  0  0  0  0  0  0  0  0
   -2.8476    1.5346    0.2083 C   0  0  0  0  0  0  0  0  0  0  0  0
    2.2837   -1.9806    0.8872 H   0  0  0  0  0  0  0  0  0  0  0  0
    1.8270   -0.7425    2.0377 H   0  0  0  0  0  0  0  0  0  0  0  0
    3.6989    0.0537    0.5678 H   0  0  0  0  0  0  0  0  0  0  0  0
    0.1713   -3.2212   -0.1372 H   0  0  0  0  0  0  0  0  0  0  0  0
   -2.1714   -2.5387   -0.6744 H   0  0  0  0  0  0  0  0  0  0  0  0
    0.3797    1.7776    1.2726 H   0  0  0  0  0  0  0  0  0  0  0  0
   -1.6638    3.1434    1.0046 H   0  0  0  0  0  0  0  0  0  0  0  0
   -3.7274    2.1665    0.1069 H   0  0  0  0  0  0  0  0  0  0  0  0
    2.7189    2.0556   -0.1280 H   0  0  0  0  0  0  0  0  0  0  0  0
    2.0560    1.6371    1.3007 H   0  0  0  0  0  0  0  0  0  0  0  0
    2.8445    0.6035   -3.0211 H   0  0  0  0  0  0  0  0  0  0  0  0
  1 13  1  0  0  0  0
  2 15  1  0  0  0  0
  2 27  1  0  0  0  0
  3 15  2  0  0  0  0
  4 10  1  0  0  0  0
  4 11  1  0  0  0  0
  4 21  1  0  0  0  0
  5  9  1  0  0  0  0
  5 25  1  0  0  0  0
  5 26  1  0  0  0  0
  6  7  1  0  0  0  0
  6  8  1  0  0  0  0
  6 11  2  0  0  0  0
  7  9  1  0  0  0  0
  7 17  1  0  0  0  0
  7 18  1  0  0  0  0
  8 10  2  0  0  0  0
  8 12  1  0  0  0  0
  9 15  1  0  0  0  0
  9 19  1  1  0  0  0
 10 13  1  0  0  0  0
 11 20  1  0  0  0  0
 12 14  2  0  0  0  0
 12 22  1  0  0  0  0
 13 16  2  0  0  0  0
 14 16  1  0  0  0  0
 14 23  1  0  0  0  0
 16 24  1  0  0  0  0
M  END
>  <PUBCHEM_COMPOUND_CID>
11737641

>  <PUBCHEM_CONFORMER_RMSD>
0.6

>  <PUBCHEM_CONFORMER_DIVERSEORDER>
1
16
19
14
7
13
11
15
18
6
5
12
8
3
17
4
9
2
10

>  <PUBCHEM_MMFF94_PARTIAL_CHARGES>
23
1 -0.11
10 -0.15
11 -0.3
12 -0.15
13 0.11
14 -0.15
15 0.66
16 -0.15
2 -0.65
20 0.15
21 0.27
22 0.15
23 0.15
24 0.15
25 0.36
26 0.36
27 0.5
3 -0.57
4 0.03
5 -0.99
6 -0.18
7 0.18
9 0.33

>  <PUBCHEM_EFFECTIVE_ROTOR_COUNT>
3

>  <PUBCHEM_PHARMACOPHORE_FEATURES>
10
1 1 hydrophobe
1 2 acceptor
1 3 acceptor
1 4 cation
1 4 donor
1 5 cation
1 5 donor
3 2 3 15 anion
5 4 6 8 10 11 rings
6 8 10 12 13 14 16 rings

>  <PUBCHEM_HEAVY_ATOM_COUNT>
16

>  <PUBCHEM_ATOM_DEF_STEREO_COUNT>
1

>  <PUBCHEM_ATOM_UDEF_STEREO_COUNT>
0

>  <PUBCHEM_BOND_DEF_STEREO_COUNT>
0

>  <PUBCHEM_BOND_UDEF_STEREO_COUNT>
0

>  <PUBCHEM_ISOTOPIC_ATOM_COUNT>
0

>  <PUBCHEM_COMPONENT_COUNT>
1

>  <PUBCHEM_CACTVS_TAUTO_COUNT>
1

>  <PUBCHEM_CONFORMER_ID>
00B31A2900000001

>  <PUBCHEM_MMFF94_ENERGY>
21.2917

>  <PUBCHEM_FEATURE_SELFOVERLAP>
50.894

>  <PUBCHEM_SHAPE_FINGERPRINT>
10062212 137 18338790109833023619
11640471 11 17823430464157310204
13538477 17 18334570282594605042
14115302 16 18335699481004429023
14993402 34 18187928339683679406
15775835 57 18260559904629766484
16945 1 18340778082358437947
17802600 8 18261385633398388900
17862501 102 18338228272007223554
18186145 218 18408608041313143461
192875 21 18410006637383965324
20645476 183 18187076252595506835
21524375 3 18333733489768519475
23402539 116 18201710734874874452
23419403 2 16536722669594432170
23557571 272 17489867120170046770
23559900 14 18272087249550677728
2748010 2 16032660553244265307
353137 74 18410576201586879465
474 4 17677053563657309804
5262128 65 17702128961242040124
537710 114 18410572907668599745
53812653 8 18412546496559348171
7364860 26 17839465487959327439
7832392 63 17907866102070327712
9981440 41 17612874108177617872

>  <PUBCHEM_SHAPE_MULTIPOLES>
313.51
6.46
2.11
1.04
0.23
0.15
0.25
0.21
1.49
0.41
-0.22
-0.24
0.17
-0.9

>  <PUBCHEM_SHAPE_SELFOVERLAP>
660.914

>  <PUBCHEM_SHAPE_VOLUME>
180.8

>  <PUBCHEM_COORDINATE_TYPE>
2
5
10

$$$$
11737641
 OpenBabel12092211553D

 27 28  0  0  1  0  0  0  0  0999 V2000
   -4.4920   -0.5490   -0.8566 Br  0  0  0  0  0  0  0  0  0  0  0  0
    2.8373   -4.3194    2.1367 O   0  0  0  0  0  0  0  0  0  0  0  0
    0.7354   -3.5226    1.8398 O   0  0  0  0  0  0  0  0  0  0  0  0
   -1.4911   -1.8961   -0.2929 N   0  0  0  0  0  0  0  0  0  0  0  0
    2.6589   -2.7650   -0.5337 N   0  0  0  0  0  0  0  0  0  0  0  0
    0.4131   -1.0857    0.5097 C   0  0  0  0  0  0  0  0  0  0  0  0
    1.8142   -0.9904    0.9673 C   0  0  0  0  0  0  0  0  0  0  0  0
   -0.5465   -0.0352    0.4958 C   0  0  0  0  0  0  0  0  0  0  0  0
    2.6113   -2.3110    0.8586 C   0  0  1  0  0  0  0  0  0  0  0  0
   -1.7324   -0.5700   -0.0122 C   0  0  0  0  0  0  0  0  0  0  0  0
   -0.1972   -2.2169    0.0190 C   0  0  0  0  0  0  0  0  0  0  0  0
   -0.5200    1.3237    0.8677 C   0  0  0  0  0  0  0  0  0  0  0  0
   -2.8977    0.1890   -0.1673 C   0  0  0  0  0  0  0  0  0  0  0  0
   -1.6782    2.0952    0.7181 C   0  0  0  0  0  0  0  0  0  0  0  0
    1.9416   -3.4173    1.6564 C   0  0  0  0  0  0  0  0  0  0  0  0
   -2.8476    1.5346    0.2083 C   0  0  0  0  0  0  0  0  0  0  0  0
    1.8257   -0.6525    2.0128 H   0  0  0  0  0  0  0  0  0  0  0  0
    2.3264   -0.2036    0.3963 H   0  0  0  0  0  0  0  0  0  0  0  0
    3.6380   -2.1787    1.2193 H   0  0  0  0  0  0  0  0  0  0  0  0
    0.1713   -3.2212   -0.1372 H   0  0  0  0  0  0  0  0  0  0  0  0
   -2.1714   -2.5387   -0.6744 H   0  0  0  0  0  0  0  0  0  0  0  0
    0.3797    1.7776    1.2726 H   0  0  0  0  0  0  0  0  0  0  0  0
   -1.6638    3.1434    1.0046 H   0  0  0  0  0  0  0  0  0  0  0  0
   -3.7274    2.1665    0.1069 H   0  0  0  0  0  0  0  0  0  0  0  0
    3.2582   -3.5867   -0.6043 H   0  0  0  0  0  0  0  0  0  0  0  0
    3.0943   -2.0465   -1.1111 H   0  0  0  0  0  0  0  0  0  0  0  0
    2.3986   -5.0348    2.6446 H   0  0  0  0  0  0  0  0  0  0  0  0
  1 13  1  0  0  0  0
  2 15  1  0  0  0  0
  2 27  1  0  0  0  0
  3 15  2  0  0  0  0
  4 10  1  0  0  0  0
  4 11  1  0  0  0  0
  4 21  1  0  0  0  0
  5  9  1  0  0  0  0
  5 25  1  0  0  0  0
  5 26  1  0  0  0  0
  6  7  1  0  0  0  0
  6  8  1  0  0  0  0
  6 11  2  0  0  0  0
  7  9  1  0  0  0  0
  7 17  1  0  0  0  0
  7 18  1  0  0  0  0
  8 10  2  0  0  0  0
  8 12  1  0  0  0  0
  9 15  1  0  0  0  0
  9 19  1  1  0  0  0
 10 13  1  0  0  0  0
 11 20  1  0  0  0  0
 12 14  2  0  0  0  0
 12 22  1  0  0  0  0
 13 16  2  0  0  0  0
 14 16  1  0  0  0  0
 14 23  1  0  0  0  0
 16 24  1  0  0  0  0
M  END
>  <PUBCHEM_COMPOUND_CID>
11737641

>  <PUBCHEM_CONFORMER_RMSD>
0.6

>  <PUBCHEM_CONFORMER_DIVERSEORDER>
1
16
19
14
7
13
11
15
18
6
5
12
8
3
17
4
9
2
10

>  <PUBCHEM_MMFF94_PARTIAL_CHARGES>
23
1 -0.11
10 -0.15
11 -0.3
12 -0.15
13 0.11
14 -0.15
15 0.66
16 -0.15
2 -0.65
20 0.15
21 0.27
22 0.15
23 0.15
24 0.15
25 0.36
26 0.36
27 0.5
3 -0.57
4 0.03
5 -0.99
6 -0.18
7 0.18
9 0.33

>  <PUBCHEM_EFFECTIVE_ROTOR_COUNT>
3

>  <PUBCHEM_PHARMACOPHORE_FEATURES>
10
1 1 hydrophobe
1 2 acceptor
1 3 acceptor
1 4 cation
1 4 donor
1 5 cation
1 5 donor
3 2 3 15 anion
5 4 6 8 10 11 rings
6 8 10 12 13 14 16 rings

>  <PUBCHEM_HEAVY_ATOM_COUNT>
16

>  <PUBCHEM_ATOM_DEF_STEREO_COUNT>
1

>  <PUBCHEM_ATOM_UDEF_STEREO_COUNT>
0

>  <PUBCHEM_BOND_DEF_STEREO_COUNT>
0

>  <PUBCHEM_BOND_UDEF_STEREO_COUNT>
0

>  <PUBCHEM_ISOTOPIC_ATOM_COUNT>
0

>  <PUBCHEM_COMPONENT_COUNT>
1

>  <PUBCHEM_CACTVS_TAUTO_COUNT>
1

>  <PUBCHEM_CONFORMER_ID>
00B31A2900000001

>  <PUBCHEM_MMFF94_ENERGY>
21.2917

>  <PUBCHEM_FEATURE_SELFOVERLAP>
50.894

>  <PUBCHEM_SHAPE_FINGERPRINT>
10062212 137 18338790109833023619
11640471 11 17823430464157310204
13538477 17 18334570282594605042
14115302 16 18335699481004429023
14993402 34 18187928339683679406
15775835 57 18260559904629766484
16945 1 18340778082358437947
17802600 8 18261385633398388900
17862501 102 18338228272007223554
18186145 218 18408608041313143461
192875 21 18410006637383965324
20645476 183 18187076252595506835
21524375 3 18333733489768519475
23402539 116 18201710734874874452
23419403 2 16536722669594432170
23557571 272 17489867120170046770
23559900 14 18272087249550677728
2748010 2 16032660553244265307
353137 74 18410576201586879465
474 4 17677053563657309804
5262128 65 17702128961242040124
537710 114 18410572907668599745
53812653 8 18412546496559348171
7364860 26 17839465487959327439
7832392 63 17907866102070327712
9981440 41 17612874108177617872

>  <PUBCHEM_SHAPE_MULTIPOLES>
313.51
6.46
2.11
1.04
0.23
0.15
0.25
0.21
1.49
0.41
-0.22
-0.24
0.17
-0.9

>  <PUBCHEM_SHAPE_SELFOVERLAP>
660.914

>  <PUBCHEM_SHAPE_VOLUME>
180.8

>  <PUBCHEM_COORDINATE_TYPE>
2
5
10

$$$$
11737641
 OpenBabel12092211553D

 27 28  0  0  1  0  0  0  0  0999 V2000
   -4.4920   -0.5490   -0.8566 Br  0  0  0  0  0  0  0  0  0  0  0  0
    1.6732   -3.5740   -0.9422 O   0  0  0  0  0  0  0  0  0  0  0  0
    3.6172   -2.4833   -1.3568 O   0  0  0  0  0  0  0  0  0  0  0  0
   -1.4911   -1.8961   -0.2929 N   0  0  0  0  0  0  0  0  0  0  0  0
    3.9841   -2.1188    1.3335 N   0  0  0  0  0  0  0  0  0  0  0  0
    0.4131   -1.0857    0.5097 C   0  0  0  0  0  0  0  0  0  0  0  0
    1.8142   -0.9904    0.9673 C   0  0  0  0  0  0  0  0  0  0  0  0
   -0.5465   -0.0352    0.4958 C   0  0  0  0  0  0  0  0  0  0  0  0
    2.6113   -2.3110    0.8586 C   0  0  1  0  0  0  0  0  0  0  0  0
   -1.7324   -0.5700   -0.0122 C   0  0  0  0  0  0  0  0  0  0  0  0
   -0.1972   -2.2169    0.0190 C   0  0  0  0  0  0  0  0  0  0  0  0
   -0.5200    1.3237    0.8677 C   0  0  0  0  0  0  0  0  0  0  0  0
   -2.8977    0.1890   -0.1673 C   0  0  0  0  0  0  0  0  0  0  0  0
   -1.6782    2.0952    0.7181 C   0  0  0  0  0  0  0  0  0  0  0  0
    2.7090   -2.7695   -0.5868 C   0  0  0  0  0  0  0  0  0  0  0  0
   -2.8476    1.5346    0.2083 C   0  0  0  0  0  0  0  0  0  0  0  0
    1.8257   -0.6525    2.0128 H   0  0  0  0  0  0  0  0  0  0  0  0
    2.3264   -0.2036    0.3963 H   0  0  0  0  0  0  0  0  0  0  0  0
    2.1415   -3.1015    1.4554 H   0  0  0  0  0  0  0  0  0  0  0  0
    0.1713   -3.2212   -0.1372 H   0  0  0  0  0  0  0  0  0  0  0  0
   -2.1714   -2.5387   -0.6744 H   0  0  0  0  0  0  0  0  0  0  0  0
    0.3797    1.7776    1.2726 H   0  0  0  0  0  0  0  0  0  0  0  0
   -1.6638    3.1434    1.0046 H   0  0  0  0  0  0  0  0  0  0  0  0
   -3.7274    2.1665    0.1069 H   0  0  0  0  0  0  0  0  0  0  0  0
    4.4719   -3.0141    1.3381 H   0  0  0  0  0  0  0  0  0  0  0  0
    3.9676   -1.8003    2.3017 H   0  0  0  0  0  0  0  0  0  0  0  0
    1.7454   -3.8725   -1.8738 H   0  0  0  0  0  0  0  0  0  0  0  0
  1 13  1  0  0  0  0
  2 15  1  0  0  0  0
  2 27  1  0  0  0  0
  3 15  2  0  0  0  0
  4 10  1  0  0  0  0
  4 11  1  0  0  0  0
  4 21  1  0  0  0  0
  5  9  1  0  0  0  0
  5 25  1  0  0  0  0
  5 26  1  0  0  0  0
  6  7  1  0  0  0  0
  6  8  1  0  0  0  0
  6 11  2  0  0  0  0
  7  9  1  0  0  0  0
  7 17  1  0  0  0  0
  7 18  1  0  0  0  0
  8 10  2  0  0  0  0
  8 12  1  0  0  0  0
  9 15  1  0  0  0  0
  9 19  1  1  0  0  0
 10 13  1  0  0  0  0
 11 20  1  0  0  0  0
 12 14  2  0  0  0  0
 12 22  1  0  0  0  0
 13 16  2  0  0  0  0
 14 16  1  0  0  0  0
 14 23  1  0  0  0  0
 16 24  1  0  0  0  0
M  END
>  <PUBCHEM_COMPOUND_CID>
11737641

>  <PUBCHEM_CONFORMER_RMSD>
0.6

>  <PUBCHEM_CONFORMER_DIVERSEORDER>
1
16
19
14
7
13
11
15
18
6
5
12
8
3
17
4
9
2
10

>  <PUBCHEM_MMFF94_PARTIAL_CHARGES>
23
1 -0.11
10 -0.15
11 -0.3
12 -0.15
13 0.11
14 -0.15
15 0.66
16 -0.15
2 -0.65
20 0.15
21 0.27
22 0.15
23 0.15
24 0.15
25 0.36
26 0.36
27 0.5
3 -0.57
4 0.03
5 -0.99
6 -0.18
7 0.18
9 0.33

>  <PUBCHEM_EFFECTIVE_ROTOR_COUNT>
3

>  <PUBCHEM_PHARMACOPHORE_FEATURES>
10
1 1 hydrophobe
1 2 acceptor
1 3 acceptor
1 4 cation
1 4 donor
1 5 cation
1 5 donor
3 2 3 15 anion
5 4 6 8 10 11 rings
6 8 10 12 13 14 16 rings

>  <PUBCHEM_HEAVY_ATOM_COUNT>
16

>  <PUBCHEM_ATOM_DEF_STEREO_COUNT>
1

>  <PUBCHEM_ATOM_UDEF_STEREO_COUNT>
0

>  <PUBCHEM_BOND_DEF_STEREO_COUNT>
0

>  <PUBCHEM_BOND_UDEF_STEREO_COUNT>
0

>  <PUBCHEM_ISOTOPIC_ATOM_COUNT>
0

>  <PUBCHEM_COMPONENT_COUNT>
1

>  <PUBCHEM_CACTVS_TAUTO_COUNT>
1

>  <PUBCHEM_CONFORMER_ID>
00B31A2900000001

>  <PUBCHEM_MMFF94_ENERGY>
21.2917

>  <PUBCHEM_FEATURE_SELFOVERLAP>
50.894

>  <PUBCHEM_SHAPE_FINGERPRINT>
10062212 137 18338790109833023619
11640471 11 17823430464157310204
13538477 17 18334570282594605042
14115302 16 18335699481004429023
14993402 34 18187928339683679406
15775835 57 18260559904629766484
16945 1 18340778082358437947
17802600 8 18261385633398388900
17862501 102 18338228272007223554
18186145 218 18408608041313143461
192875 21 18410006637383965324
20645476 183 18187076252595506835
21524375 3 18333733489768519475
23402539 116 18201710734874874452
23419403 2 16536722669594432170
23557571 272 17489867120170046770
23559900 14 18272087249550677728
2748010 2 16032660553244265307
353137 74 18410576201586879465
474 4 17677053563657309804
5262128 65 17702128961242040124
537710 114 18410572907668599745
53812653 8 18412546496559348171
7364860 26 17839465487959327439
7832392 63 17907866102070327712
9981440 41 17612874108177617872

>  <PUBCHEM_SHAPE_MULTIPOLES>
313.51
6.46
2.11
1.04
0.23
0.15
0.25
0.21
1.49
0.41
-0.22
-0.24
0.17
-0.9

>  <PUBCHEM_SHAPE_SELFOVERLAP>
660.914

>  <PUBCHEM_SHAPE_VOLUME>
180.8

>  <PUBCHEM_COORDINATE_TYPE>
2
5
10

$$$$
11737641
 OpenBabel12092211553D

 27 28  0  0  1  0  0  0  0  0999 V2000
   -4.4920   -0.5490   -0.8566 Br  0  0  0  0  0  0  0  0  0  0  0  0
    3.6496    0.4724    3.7968 O   0  0  0  0  0  0  0  0  0  0  0  0
    4.3547   -1.0843    2.3067 O   0  0  0  0  0  0  0  0  0  0  0  0
   -1.4911   -1.8961   -0.2929 N   0  0  0  0  0  0  0  0  0  0  0  0
    1.3729    0.7455    2.6725 N   0  0  0  0  0  0  0  0  0  0  0  0
    0.4131   -1.0857    0.5097 C   0  0  0  0  0  0  0  0  0  0  0  0
    1.8142   -0.9904    0.9673 C   0  0  0  0  0  0  0  0  0  0  0  0
   -0.5465   -0.0352    0.4958 C   0  0  0  0  0  0  0  0  0  0  0  0
    1.9741   -0.5716    2.4472 C   0  0  1  0  0  0  0  0  0  0  0  0
   -1.7324   -0.5700   -0.0122 C   0  0  0  0  0  0  0  0  0  0  0  0
   -0.1972   -2.2169    0.0190 C   0  0  0  0  0  0  0  0  0  0  0  0
   -0.5200    1.3237    0.8677 C   0  0  0  0  0  0  0  0  0  0  0  0
   -2.8977    0.1890   -0.1673 C   0  0  0  0  0  0  0  0  0  0  0  0
   -1.6782    2.0952    0.7181 C   0  0  0  0  0  0  0  0  0  0  0  0
    3.4417   -0.4521    2.8227 C   0  0  0  0  0  0  0  0  0  0  0  0
   -2.8476    1.5346    0.2083 C   0  0  0  0  0  0  0  0  0  0  0  0
    2.3481   -0.2690    0.3334 H   0  0  0  0  0  0  0  0  0  0  0  0
    2.3130   -1.9555    0.8022 H   0  0  0  0  0  0  0  0  0  0  0  0
    1.4906   -1.2960    3.1130 H   0  0  0  0  0  0  0  0  0  0  0  0
    0.1713   -3.2212   -0.1372 H   0  0  0  0  0  0  0  0  0  0  0  0
   -2.1714   -2.5387   -0.6744 H   0  0  0  0  0  0  0  0  0  0  0  0
    0.3797    1.7776    1.2726 H   0  0  0  0  0  0  0  0  0  0  0  0
   -1.6638    3.1434    1.0046 H   0  0  0  0  0  0  0  0  0  0  0  0
   -3.7274    2.1665    0.1069 H   0  0  0  0  0  0  0  0  0  0  0  0
    1.4079    0.9710    3.6662 H   0  0  0  0  0  0  0  0  0  0  0  0
    0.3849    0.7154    2.4236 H   0  0  0  0  0  0  0  0  0  0  0  0
    4.5992    0.5502    4.0299 H   0  0  0  0  0  0  0  0  0  0  0  0
  1 13  1  0  0  0  0
  2 15  1  0  0  0  0
  2 27  1  0  0  0  0
  3 15  2  0  0  0  0
  4 10  1  0  0  0  0
  4 11  1  0  0  0  0
  4 21  1  0  0  0  0
  5  9  1  0  0  0  0
  5 25  1  0  0  0  0
  5 26  1  0  0  0  0
  6  7  1  0  0  0  0
  6  8  1  0  0  0  0
  6 11  2  0  0  0  0
  7  9  1  0  0  0  0
  7 17  1  0  0  0  0
  7 18  1  0  0  0  0
  8 10  2  0  0  0  0
  8 12  1  0  0  0  0
  9 15  1  0  0  0  0
  9 19  1  1  0  0  0
 10 13  1  0  0  0  0
 11 20  1  0  0  0  0
 12 14  2  0  0  0  0
 12 22  1  0  0  0  0
 13 16  2  0  0  0  0
 14 16  1  0  0  0  0
 14 23  1  0  0  0  0
 16 24  1  0  0  0  0
M  END
>  <PUBCHEM_COMPOUND_CID>
11737641

>  <PUBCHEM_CONFORMER_RMSD>
0.6

>  <PUBCHEM_CONFORMER_DIVERSEORDER>
1
16
19
14
7
13
11
15
18
6
5
12
8
3
17
4
9
2
10

>  <PUBCHEM_MMFF94_PARTIAL_CHARGES>
23
1 -0.11
10 -0.15
11 -0.3
12 -0.15
13 0.11
14 -0.15
15 0.66
16 -0.15
2 -0.65
20 0.15
21 0.27
22 0.15
23 0.15
24 0.15
25 0.36
26 0.36
27 0.5
3 -0.57
4 0.03
5 -0.99
6 -0.18
7 0.18
9 0.33

>  <PUBCHEM_EFFECTIVE_ROTOR_COUNT>
3

>  <PUBCHEM_PHARMACOPHORE_FEATURES>
10
1 1 hydrophobe
1 2 acceptor
1 3 acceptor
1 4 cation
1 4 donor
1 5 cation
1 5 donor
3 2 3 15 anion
5 4 6 8 10 11 rings
6 8 10 12 13 14 16 rings

>  <PUBCHEM_HEAVY_ATOM_COUNT>
16

>  <PUBCHEM_ATOM_DEF_STEREO_COUNT>
1

>  <PUBCHEM_ATOM_UDEF_STEREO_COUNT>
0

>  <PUBCHEM_BOND_DEF_STEREO_COUNT>
0

>  <PUBCHEM_BOND_UDEF_STEREO_COUNT>
0

>  <PUBCHEM_ISOTOPIC_ATOM_COUNT>
0

>  <PUBCHEM_COMPONENT_COUNT>
1

>  <PUBCHEM_CACTVS_TAUTO_COUNT>
1

>  <PUBCHEM_CONFORMER_ID>
00B31A2900000001

>  <PUBCHEM_MMFF94_ENERGY>
21.2917

>  <PUBCHEM_FEATURE_SELFOVERLAP>
50.894

>  <PUBCHEM_SHAPE_FINGERPRINT>
10062212 137 18338790109833023619
11640471 11 17823430464157310204
13538477 17 18334570282594605042
14115302 16 18335699481004429023
14993402 34 18187928339683679406
15775835 57 18260559904629766484
16945 1 18340778082358437947
17802600 8 18261385633398388900
17862501 102 18338228272007223554
18186145 218 18408608041313143461
192875 21 18410006637383965324
20645476 183 18187076252595506835
21524375 3 18333733489768519475
23402539 116 18201710734874874452
23419403 2 16536722669594432170
23557571 272 17489867120170046770
23559900 14 18272087249550677728
2748010 2 16032660553244265307
353137 74 18410576201586879465
474 4 17677053563657309804
5262128 65 17702128961242040124
537710 114 18410572907668599745
53812653 8 18412546496559348171
7364860 26 17839465487959327439
7832392 63 17907866102070327712
9981440 41 17612874108177617872

>  <PUBCHEM_SHAPE_MULTIPOLES>
313.51
6.46
2.11
1.04
0.23
0.15
0.25
0.21
1.49
0.41
-0.22
-0.24
0.17
-0.9

>  <PUBCHEM_SHAPE_SELFOVERLAP>
660.914

>  <PUBCHEM_SHAPE_VOLUME>
180.8

>  <PUBCHEM_COORDINATE_TYPE>
2
5
10

$$$$
11737641
 OpenBabel12092211553D

 27 28  0  0  1  0  0  0  0  0999 V2000
   -4.4920   -0.5490   -0.8566 Br  0  0  0  0  0  0  0  0  0  0  0  0
    1.4504   -0.2720   -1.8451 O   0  0  0  0  0  0  0  0  0  0  0  0
    3.6962   -0.5686   -1.9409 O   0  0  0  0  0  0  0  0  0  0  0  0
   -1.4911   -1.8961   -0.2929 N   0  0  0  0  0  0  0  0  0  0  0  0
    2.0996    1.3781    0.3158 N   0  0  0  0  0  0  0  0  0  0  0  0
    0.4131   -1.0857    0.5097 C   0  0  0  0  0  0  0  0  0  0  0  0
    1.8142   -0.9904    0.9673 C   0  0  0  0  0  0  0  0  0  0  0  0
   -0.5465   -0.0352    0.4958 C   0  0  0  0  0  0  0  0  0  0  0  0
    2.6707    0.0348    0.1884 C   0  0  1  0  0  0  0  0  0  0  0  0
   -1.7324   -0.5700   -0.0122 C   0  0  0  0  0  0  0  0  0  0  0  0
   -0.1972   -2.2169    0.0190 C   0  0  0  0  0  0  0  0  0  0  0  0
   -0.5200    1.3237    0.8677 C   0  0  0  0  0  0  0  0  0  0  0  0
   -2.8977    0.1890   -0.1673 C   0  0  0  0  0  0  0  0  0  0  0  0
   -1.6782    2.0952    0.7181 C   0  0  0  0  0  0  0  0  0  0  0  0
    2.6931   -0.2916   -1.2955 C   0  0  0  0  0  0  0  0  0  0  0  0
   -2.8476    1.5346    0.2083 C   0  0  0  0  0  0  0  0  0  0  0  0
    2.2837   -1.9806    0.8872 H   0  0  0  0  0  0  0  0  0  0  0  0
    1.8270   -0.7425    2.0377 H   0  0  0  0  0  0  0  0  0  0  0  0
    3.6989    0.0537    0.5678 H   0  0  0  0  0  0  0  0  0  0  0  0
    0.1713   -3.2212   -0.1372 H   0  0  0  0  0  0  0  0  0  0  0  0
   -2.1714   -2.5387   -0.6744 H   0  0  0  0  0  0  0  0  0  0  0  0
    0.3797    1.7776    1.2726 H   0  0  0  0  0  0  0  0  0  0  0  0
   -1.6638    3.1434    1.0046 H   0  0  0  0  0  0  0  0  0  0  0  0
   -3.7274    2.1665    0.1069 H   0  0  0  0  0  0  0  0  0  0  0  0
    2.7189    2.0556   -0.1280 H   0  0  0  0  0  0  0  0  0  0  0  0
    2.0560    1.6371    1.3007 H   0  0  0  0  0  0  0  0  0  0  0  0
    1.4704   -0.4904   -2.8013 H   0  0  0  0  0  0  0  0  0  0  0  0
  1 13  1  0  0  0  0
  2 15  1  0  0  0  0
  2 27  1  0  0  0  0
  3 15  2  0  0  0  0
  4 10  1  0  0  0  0
  4 11  1  0  0  0  0
  4 21  1  0  0  0  0
  5  9  1  0  0  0  0
  5 25  1  0  0  0  0
  5 26  1  0  0  0  0
  6  7  1  0  0  0  0
  6  8  1  0  0  0  0
  6 11  2  0  0  0  0
  7  9  1  0  0  0  0
  7 17  1  0  0  0  0
  7 18  1  0  0  0  0
  8 10  2  0  0  0  0
  8 12  1  0  0  0  0
  9 15  1  0  0  0  0
  9 19  1  1  0  0  0
 10 13  1  0  0  0  0
 11 20  1  0  0  0  0
 12 14  2  0  0  0  0
 12 22  1  0  0  0  0
 13 16  2  0  0  0  0
 14 16  1  0  0  0  0
 14 23  1  0  0  0  0
 16 24  1  0  0  0  0
M  END
>  <PUBCHEM_COMPOUND_CID>
11737641

>  <PUBCHEM_CONFORMER_RMSD>
0.6

>  <PUBCHEM_CONFORMER_DIVERSEORDER>
1
16
19
14
7
13
11
15
18
6
5
12
8
3
17
4
9
2
10

>  <PUBCHEM_MMFF94_PARTIAL_CHARGES>
23
1 -0.11
10 -0.15
11 -0.3
12 -0.15
13 0.11
14 -0.15
15 0.66
16 -0.15
2 -0.65
20 0.15
21 0.27
22 0.15
23 0.15
24 0.15
25 0.36
26 0.36
27 0.5
3 -0.57
4 0.03
5 -0.99
6 -0.18
7 0.18
9 0.33

>  <PUBCHEM_EFFECTIVE_ROTOR_COUNT>
3

>  <PUBCHEM_PHARMACOPHORE_FEATURES>
10
1 1 hydrophobe
1 2 acceptor
1 3 acceptor
1 4 cation
1 4 donor
1 5 cation
1 5 donor
3 2 3 15 anion
5 4 6 8 10 11 rings
6 8 10 12 13 14 16 rings

>  <PUBCHEM_HEAVY_ATOM_COUNT>
16

>  <PUBCHEM_ATOM_DEF_STEREO_COUNT>
1

>  <PUBCHEM_ATOM_UDEF_STEREO_COUNT>
0

>  <PUBCHEM_BOND_DEF_STEREO_COUNT>
0

>  <PUBCHEM_BOND_UDEF_STEREO_COUNT>
0

>  <PUBCHEM_ISOTOPIC_ATOM_COUNT>
0

>  <PUBCHEM_COMPONENT_COUNT>
1

>  <PUBCHEM_CACTVS_TAUTO_COUNT>
1

>  <PUBCHEM_CONFORMER_ID>
00B31A2900000001

>  <PUBCHEM_MMFF94_ENERGY>
21.2917

>  <PUBCHEM_FEATURE_SELFOVERLAP>
50.894

>  <PUBCHEM_SHAPE_FINGERPRINT>
10062212 137 18338790109833023619
11640471 11 17823430464157310204
13538477 17 18334570282594605042
14115302 16 18335699481004429023
14993402 34 18187928339683679406
15775835 57 18260559904629766484
16945 1 18340778082358437947
17802600 8 18261385633398388900
17862501 102 18338228272007223554
18186145 218 18408608041313143461
192875 21 18410006637383965324
20645476 183 18187076252595506835
21524375 3 18333733489768519475
23402539 116 18201710734874874452
23419403 2 16536722669594432170
23557571 272 17489867120170046770
23559900 14 18272087249550677728
2748010 2 16032660553244265307
353137 74 18410576201586879465
474 4 17677053563657309804
5262128 65 17702128961242040124
537710 114 18410572907668599745
53812653 8 18412546496559348171
7364860 26 17839465487959327439
7832392 63 17907866102070327712
9981440 41 17612874108177617872

>  <PUBCHEM_SHAPE_MULTIPOLES>
313.51
6.46
2.11
1.04
0.23
0.15
0.25
0.21
1.49
0.41
-0.22
-0.24
0.17
-0.9

>  <PUBCHEM_SHAPE_SELFOVERLAP>
660.914

>  <PUBCHEM_SHAPE_VOLUME>
180.8

>  <PUBCHEM_COORDINATE_TYPE>
2
5
10

$$$$
11737641
 OpenBabel12092211553D

 27 28  0  0  1  0  0  0  0  0999 V2000
   -4.4920   -0.5490   -0.8566 Br  0  0  0  0  0  0  0  0  0  0  0  0
    4.2141   -0.0835    1.7672 O   0  0  0  0  0  0  0  0  0  0  0  0
    3.9057   -0.6799    3.9329 O   0  0  0  0  0  0  0  0  0  0  0  0
   -1.4911   -1.8961   -0.2929 N   0  0  0  0  0  0  0  0  0  0  0  0
    1.3729    0.7455    2.6725 N   0  0  0  0  0  0  0  0  0  0  0  0
    0.4131   -1.0857    0.5097 C   0  0  0  0  0  0  0  0  0  0  0  0
    1.8142   -0.9904    0.9673 C   0  0  0  0  0  0  0  0  0  0  0  0
   -0.5465   -0.0352    0.4958 C   0  0  0  0  0  0  0  0  0  0  0  0
    1.9741   -0.5716    2.4472 C   0  0  1  0  0  0  0  0  0  0  0  0
   -1.7324   -0.5700   -0.0122 C   0  0  0  0  0  0  0  0  0  0  0  0
   -0.1972   -2.2169    0.0190 C   0  0  0  0  0  0  0  0  0  0  0  0
   -0.5200    1.3237    0.8677 C   0  0  0  0  0  0  0  0  0  0  0  0
   -2.8977    0.1890   -0.1673 C   0  0  0  0  0  0  0  0  0  0  0  0
   -1.6782    2.0952    0.7181 C   0  0  0  0  0  0  0  0  0  0  0  0
    3.4417   -0.4521    2.8227 C   0  0  0  0  0  0  0  0  0  0  0  0
   -2.8476    1.5346    0.2083 C   0  0  0  0  0  0  0  0  0  0  0  0
    2.3481   -0.2690    0.3334 H   0  0  0  0  0  0  0  0  0  0  0  0
    2.3130   -1.9555    0.8022 H   0  0  0  0  0  0  0  0  0  0  0  0
    1.4906   -1.2960    3.1130 H   0  0  0  0  0  0  0  0  0  0  0  0
    0.1713   -3.2212   -0.1372 H   0  0  0  0  0  0  0  0  0  0  0  0
   -2.1714   -2.5387   -0.6744 H   0  0  0  0  0  0  0  0  0  0  0  0
    0.3797    1.7776    1.2726 H   0  0  0  0  0  0  0  0  0  0  0  0
   -1.6638    3.1434    1.0046 H   0  0  0  0  0  0  0  0  0  0  0  0
   -3.7274    2.1665    0.1069 H   0  0  0  0  0  0  0  0  0  0  0  0
    1.4079    0.9710    3.6662 H   0  0  0  0  0  0  0  0  0  0  0  0
    0.3849    0.7154    2.4236 H   0  0  0  0  0  0  0  0  0  0  0  0
    5.1611   -0.0150    2.0138 H   0  0  0  0  0  0  0  0  0  0  0  0
  1 13  1  0  0  0  0
  2 15  1  0  0  0  0
  2 27  1  0  0  0  0
  3 15  2  0  0  0  0
  4 10  1  0  0  0  0
  4 11  1  0  0  0  0
  4 21  1  0  0  0  0
  5  9  1  0  0  0  0
  5 25  1  0  0  0  0
  5 26  1  0  0  0  0
  6  7  1  0  0  0  0
  6  8  1  0  0  0  0
  6 11  2  0  0  0  0
  7  9  1  0  0  0  0
  7 17  1  0  0  0  0
  7 18  1  0  0  0  0
  8 10  2  0  0  0  0
  8 12  1  0  0  0  0
  9 15  1  0  0  0  0
  9 19  1  1  0  0  0
 10 13  1  0  0  0  0
 11 20  1  0  0  0  0
 12 14  2  0  0  0  0
 12 22  1  0  0  0  0
 13 16  2  0  0  0  0
 14 16  1  0  0  0  0
 14 23  1  0  0  0  0
 16 24  1  0  0  0  0
M  END
>  <PUBCHEM_COMPOUND_CID>
11737641

>  <PUBCHEM_CONFORMER_RMSD>
0.6

>  <PUBCHEM_CONFORMER_DIVERSEORDER>
1
16
19
14
7
13
11
15
18
6
5
12
8
3
17
4
9
2
10

>  <PUBCHEM_MMFF94_PARTIAL_CHARGES>
23
1 -0.11
10 -0.15
11 -0.3
12 -0.15
13 0.11
14 -0.15
15 0.66
16 -0.15
2 -0.65
20 0.15
21 0.27
22 0.15
23 0.15
24 0.15
25 0.36
26 0.36
27 0.5
3 -0.57
4 0.03
5 -0.99
6 -0.18
7 0.18
9 0.33

>  <PUBCHEM_EFFECTIVE_ROTOR_COUNT>
3

>  <PUBCHEM_PHARMACOPHORE_FEATURES>
10
1 1 hydrophobe
1 2 acceptor
1 3 acceptor
1 4 cation
1 4 donor
1 5 cation
1 5 donor
3 2 3 15 anion
5 4 6 8 10 11 rings
6 8 10 12 13 14 16 rings

>  <PUBCHEM_HEAVY_ATOM_COUNT>
16

>  <PUBCHEM_ATOM_DEF_STEREO_COUNT>
1

>  <PUBCHEM_ATOM_UDEF_STEREO_COUNT>
0

>  <PUBCHEM_BOND_DEF_STEREO_COUNT>
0

>  <PUBCHEM_BOND_UDEF_STEREO_COUNT>
0

>  <PUBCHEM_ISOTOPIC_ATOM_COUNT>
0

>  <PUBCHEM_COMPONENT_COUNT>
1

>  <PUBCHEM_CACTVS_TAUTO_COUNT>
1

>  <PUBCHEM_CONFORMER_ID>
00B31A2900000001

>  <PUBCHEM_MMFF94_ENERGY>
21.2917

>  <PUBCHEM_FEATURE_SELFOVERLAP>
50.894

>  <PUBCHEM_SHAPE_FINGERPRINT>
10062212 137 18338790109833023619
11640471 11 17823430464157310204
13538477 17 18334570282594605042
14115302 16 18335699481004429023
14993402 34 18187928339683679406
15775835 57 18260559904629766484
16945 1 18340778082358437947
17802600 8 18261385633398388900
17862501 102 18338228272007223554
18186145 218 18408608041313143461
192875 21 18410006637383965324
20645476 183 18187076252595506835
21524375 3 18333733489768519475
23402539 116 18201710734874874452
23419403 2 16536722669594432170
23557571 272 17489867120170046770
23559900 14 18272087249550677728
2748010 2 16032660553244265307
353137 74 18410576201586879465
474 4 17677053563657309804
5262128 65 17702128961242040124
537710 114 18410572907668599745
53812653 8 18412546496559348171
7364860 26 17839465487959327439
7832392 63 17907866102070327712
9981440 41 17612874108177617872

>  <PUBCHEM_SHAPE_MULTIPOLES>
313.51
6.46
2.11
1.04
0.23
0.15
0.25
0.21
1.49
0.41
-0.22
-0.24
0.17
-0.9

>  <PUBCHEM_SHAPE_SELFOVERLAP>
660.914

>  <PUBCHEM_SHAPE_VOLUME>
180.8

>  <PUBCHEM_COORDINATE_TYPE>
2
5
10

$$$$
11737641
 OpenBabel12092211553D

 27 28  0  0  1  0  0  0  0  0999 V2000
   -4.4920   -0.5490   -0.8566 Br  0  0  0  0  0  0  0  0  0  0  0  0
    2.8801   -3.9726    1.5253 O   0  0  0  0  0  0  0  0  0  0  0  0
    1.6140   -4.0057   -0.3553 O   0  0  0  0  0  0  0  0  0  0  0  0
   -1.4911   -1.8961   -0.2929 N   0  0  0  0  0  0  0  0  0  0  0  0
    2.8004   -1.6825   -1.1924 N   0  0  0  0  0  0  0  0  0  0  0  0
    0.4131   -1.0857    0.5097 C   0  0  0  0  0  0  0  0  0  0  0  0
    1.8142   -0.9904    0.9673 C   0  0  0  0  0  0  0  0  0  0  0  0
   -0.5465   -0.0352    0.4958 C   0  0  0  0  0  0  0  0  0  0  0  0
    2.7866   -1.9535    0.2475 C   0  0  1  0  0  0  0  0  0  0  0  0
   -1.7324   -0.5700   -0.0122 C   0  0  0  0  0  0  0  0  0  0  0  0
   -0.1972   -2.2169    0.0190 C   0  0  0  0  0  0  0  0  0  0  0  0
   -0.5200    1.3237    0.8677 C   0  0  0  0  0  0  0  0  0  0  0  0
   -2.8977    0.1890   -0.1673 C   0  0  0  0  0  0  0  0  0  0  0  0
   -1.6782    2.0952    0.7181 C   0  0  0  0  0  0  0  0  0  0  0  0
    2.3453   -3.3978    0.4162 C   0  0  0  0  0  0  0  0  0  0  0  0
   -2.8476    1.5346    0.2083 C   0  0  0  0  0  0  0  0  0  0  0  0
    1.8509   -1.1888    2.0474 H   0  0  0  0  0  0  0  0  0  0  0  0
    2.1632    0.0443    0.8444 H   0  0  0  0  0  0  0  0  0  0  0  0
    3.8059   -1.8416    0.6349 H   0  0  0  0  0  0  0  0  0  0  0  0
    0.1713   -3.2212   -0.1372 H   0  0  0  0  0  0  0  0  0  0  0  0
   -2.1714   -2.5387   -0.6744 H   0  0  0  0  0  0  0  0  0  0  0  0
    0.3797    1.7776    1.2726 H   0  0  0  0  0  0  0  0  0  0  0  0
   -1.6638    3.1434    1.0046 H   0  0  0  0  0  0  0  0  0  0  0  0
   -3.7274    2.1665    0.1069 H   0  0  0  0  0  0  0  0  0  0  0  0
    3.5072   -2.2636   -1.6421 H   0  0  0  0  0  0  0  0  0  0  0  0
    3.0832   -0.7166   -1.3540 H   0  0  0  0  0  0  0  0  0  0  0  0
    2.5976   -4.9067    1.6251 H   0  0  0  0  0  0  0  0  0  0  0  0
  1 13  1  0  0  0  0
  2 15  1  0  0  0  0
  2 27  1  0  0  0  0
  3 15  2  0  0  0  0
  4 10  1  0  0  0  0
  4 11  1  0  0  0  0
  4 21  1  0  0  0  0
  5  9  1  0  0  0  0
  5 25  1  0  0  0  0
  5 26  1  0  0  0  0
  6  7  1  0  0  0  0
  6  8  1  0  0  0  0
  6 11  2  0  0  0  0
  7  9  1  0  0  0  0
  7 17  1  0  0  0  0
  7 18  1  0  0  0  0
  8 10  2  0  0  0  0
  8 12  1  0  0  0  0
  9 15  1  0  0  0  0
  9 19  1  1  0  0  0
 10 13  1  0  0  0  0
 11 20  1  0  0  0  0
 12 14  2  0  0  0  0
 12 22  1  0  0  0  0
 13 16  2  0  0  0  0
 14 16  1  0  0  0  0
 14 23  1  0  0  0  0
 16 24  1  0  0  0  0
M  END
>  <PUBCHEM_COMPOUND_CID>
11737641

>  <PUBCHEM_CONFORMER_RMSD>
0.6

>  <PUBCHEM_CONFORMER_DIVERSEORDER>
1
16
19
14
7
13
11
15
18
6
5
12
8
3
17
4
9
2
10

>  <PUBCHEM_MMFF94_PARTIAL_CHARGES>
23
1 -0.11
10 -0.15
11 -0.3
12 -0.15
13 0.11
14 -0.15
15 0.66
16 -0.15
2 -0.65
20 0.15
21 0.27
22 0.15
23 0.15
24 0.15
25 0.36
26 0.36
27 0.5
3 -0.57
4 0.03
5 -0.99
6 -0.18
7 0.18
9 0.33

>  <PUBCHEM_EFFECTIVE_ROTOR_COUNT>
3

>  <PUBCHEM_PHARMACOPHORE_FEATURES>
10
1 1 hydrophobe
1 2 acceptor
1 3 acceptor
1 4 cation
1 4 donor
1 5 cation
1 5 donor
3 2 3 15 anion
5 4 6 8 10 11 rings
6 8 10 12 13 14 16 rings

>  <PUBCHEM_HEAVY_ATOM_COUNT>
16

>  <PUBCHEM_ATOM_DEF_STEREO_COUNT>
1

>  <PUBCHEM_ATOM_UDEF_STEREO_COUNT>
0

>  <PUBCHEM_BOND_DEF_STEREO_COUNT>
0

>  <PUBCHEM_BOND_UDEF_STEREO_COUNT>
0

>  <PUBCHEM_ISOTOPIC_ATOM_COUNT>
0

>  <PUBCHEM_COMPONENT_COUNT>
1

>  <PUBCHEM_CACTVS_TAUTO_COUNT>
1

>  <PUBCHEM_CONFORMER_ID>
00B31A2900000001

>  <PUBCHEM_MMFF94_ENERGY>
21.2917

>  <PUBCHEM_FEATURE_SELFOVERLAP>
50.894

>  <PUBCHEM_SHAPE_FINGERPRINT>
10062212 137 18338790109833023619
11640471 11 17823430464157310204
13538477 17 18334570282594605042
14115302 16 18335699481004429023
14993402 34 18187928339683679406
15775835 57 18260559904629766484
16945 1 18340778082358437947
17802600 8 18261385633398388900
17862501 102 18338228272007223554
18186145 218 18408608041313143461
192875 21 18410006637383965324
20645476 183 18187076252595506835
21524375 3 18333733489768519475
23402539 116 18201710734874874452
23419403 2 16536722669594432170
23557571 272 17489867120170046770
23559900 14 18272087249550677728
2748010 2 16032660553244265307
353137 74 18410576201586879465
474 4 17677053563657309804
5262128 65 17702128961242040124
537710 114 18410572907668599745
53812653 8 18412546496559348171
7364860 26 17839465487959327439
7832392 63 17907866102070327712
9981440 41 17612874108177617872

>  <PUBCHEM_SHAPE_MULTIPOLES>
313.51
6.46
2.11
1.04
0.23
0.15
0.25
0.21
1.49
0.41
-0.22
-0.24
0.17
-0.9

>  <PUBCHEM_SHAPE_SELFOVERLAP>
660.914

>  <PUBCHEM_SHAPE_VOLUME>
180.8

>  <PUBCHEM_COORDINATE_TYPE>
2
5
10

$$$$
11737641
 OpenBabel12092211553D

 27 28  0  0  1  0  0  0  0  0999 V2000
   -4.4920   -0.5490   -0.8566 Br  0  0  0  0  0  0  0  0  0  0  0  0
    1.0121   -0.2479    3.4223 O   0  0  0  0  0  0  0  0  0  0  0  0
    1.0805    1.9703    2.9577 O   0  0  0  0  0  0  0  0  0  0  0  0
   -1.4911   -1.8961   -0.2929 N   0  0  0  0  0  0  0  0  0  0  0  0
    3.6265    0.4089    1.9017 N   0  0  0  0  0  0  0  0  0  0  0  0
    0.4131   -1.0857    0.5097 C   0  0  0  0  0  0  0  0  0  0  0  0
    1.8142   -0.9904    0.9673 C   0  0  0  0  0  0  0  0  0  0  0  0
   -0.5465   -0.0352    0.4958 C   0  0  0  0  0  0  0  0  0  0  0  0
    2.2261    0.4124    1.4709 C   0  0  1  0  0  0  0  0  0  0  0  0
   -1.7324   -0.5700   -0.0122 C   0  0  0  0  0  0  0  0  0  0  0  0
   -0.1972   -2.2169    0.0190 C   0  0  0  0  0  0  0  0  0  0  0  0
   -0.5200    1.3237    0.8677 C   0  0  0  0  0  0  0  0  0  0  0  0
   -2.8977    0.1890   -0.1673 C   0  0  0  0  0  0  0  0  0  0  0  0
   -1.6782    2.0952    0.7181 C   0  0  0  0  0  0  0  0  0  0  0  0
    1.3985    0.8213    2.6779 C   0  0  0  0  0  0  0  0  0  0  0  0
   -2.8476    1.5346    0.2083 C   0  0  0  0  0  0  0  0  0  0  0  0
    2.4793   -1.2823    0.1428 H   0  0  0  0  0  0  0  0  0  0  0  0
    1.9845   -1.7308    1.7612 H   0  0  0  0  0  0  0  0  0  0  0  0
    2.1044    1.1627    0.6809 H   0  0  0  0  0  0  0  0  0  0  0  0
    0.1713   -3.2212   -0.1372 H   0  0  0  0  0  0  0  0  0  0  0  0
   -2.1714   -2.5387   -0.6744 H   0  0  0  0  0  0  0  0  0  0  0  0
    0.3797    1.7776    1.2726 H   0  0  0  0  0  0  0  0  0  0  0  0
   -1.6638    3.1434    1.0046 H   0  0  0  0  0  0  0  0  0  0  0  0
   -3.7274    2.1665    0.1069 H   0  0  0  0  0  0  0  0  0  0  0  0
    3.9098    1.3566    2.1489 H   0  0  0  0  0  0  0  0  0  0  0  0
    4.2214    0.1297    1.1224 H   0  0  0  0  0  0  0  0  0  0  0  0
    0.4724    0.0215    4.1959 H   0  0  0  0  0  0  0  0  0  0  0  0
  1 13  1  0  0  0  0
  2 15  1  0  0  0  0
  2 27  1  0  0  0  0
  3 15  2  0  0  0  0
  4 10  1  0  0  0  0
  4 11  1  0  0  0  0
  4 21  1  0  0  0  0
  5  9  1  0  0  0  0
  5 25  1  0  0  0  0
  5 26  1  0  0  0  0
  6  7  1  0  0  0  0
  6  8  1  0  0  0  0
  6 11  2  0  0  0  0
  7  9  1  0  0  0  0
  7 17  1  0  0  0  0
  7 18  1  0  0  0  0
  8 10  2  0  0  0  0
  8 12  1  0  0  0  0
  9 15  1  0  0  0  0
  9 19  1  6  0  0  0
 10 13  1  0  0  0  0
 11 20  1  0  0  0  0
 12 14  2  0  0  0  0
 12 22  1  0  0  0  0
 13 16  2  0  0  0  0
 14 16  1  0  0  0  0
 14 23  1  0  0  0  0
 16 24  1  0  0  0  0
M  END
>  <PUBCHEM_COMPOUND_CID>
11737641

>  <PUBCHEM_CONFORMER_RMSD>
0.6

>  <PUBCHEM_CONFORMER_DIVERSEORDER>
1
16
19
14
7
13
11
15
18
6
5
12
8
3
17
4
9
2
10

>  <PUBCHEM_MMFF94_PARTIAL_CHARGES>
23
1 -0.11
10 -0.15
11 -0.3
12 -0.15
13 0.11
14 -0.15
15 0.66
16 -0.15
2 -0.65
20 0.15
21 0.27
22 0.15
23 0.15
24 0.15
25 0.36
26 0.36
27 0.5
3 -0.57
4 0.03
5 -0.99
6 -0.18
7 0.18
9 0.33

>  <PUBCHEM_EFFECTIVE_ROTOR_COUNT>
3

>  <PUBCHEM_PHARMACOPHORE_FEATURES>
10
1 1 hydrophobe
1 2 acceptor
1 3 acceptor
1 4 cation
1 4 donor
1 5 cation
1 5 donor
3 2 3 15 anion
5 4 6 8 10 11 rings
6 8 10 12 13 14 16 rings

>  <PUBCHEM_HEAVY_ATOM_COUNT>
16

>  <PUBCHEM_ATOM_DEF_STEREO_COUNT>
1

>  <PUBCHEM_ATOM_UDEF_STEREO_COUNT>
0

>  <PUBCHEM_BOND_DEF_STEREO_COUNT>
0

>  <PUBCHEM_BOND_UDEF_STEREO_COUNT>
0

>  <PUBCHEM_ISOTOPIC_ATOM_COUNT>
0

>  <PUBCHEM_COMPONENT_COUNT>
1

>  <PUBCHEM_CACTVS_TAUTO_COUNT>
1

>  <PUBCHEM_CONFORMER_ID>
00B31A2900000001

>  <PUBCHEM_MMFF94_ENERGY>
21.2917

>  <PUBCHEM_FEATURE_SELFOVERLAP>
50.894

>  <PUBCHEM_SHAPE_FINGERPRINT>
10062212 137 18338790109833023619
11640471 11 17823430464157310204
13538477 17 18334570282594605042
14115302 16 18335699481004429023
14993402 34 18187928339683679406
15775835 57 18260559904629766484
16945 1 18340778082358437947
17802600 8 18261385633398388900
17862501 102 18338228272007223554
18186145 218 18408608041313143461
192875 21 18410006637383965324
20645476 183 18187076252595506835
21524375 3 18333733489768519475
23402539 116 18201710734874874452
23419403 2 16536722669594432170
23557571 272 17489867120170046770
23559900 14 18272087249550677728
2748010 2 16032660553244265307
353137 74 18410576201586879465
474 4 17677053563657309804
5262128 65 17702128961242040124
537710 114 18410572907668599745
53812653 8 18412546496559348171
7364860 26 17839465487959327439
7832392 63 17907866102070327712
9981440 41 17612874108177617872

>  <PUBCHEM_SHAPE_MULTIPOLES>
313.51
6.46
2.11
1.04
0.23
0.15
0.25
0.21
1.49
0.41
-0.22
-0.24
0.17
-0.9

>  <PUBCHEM_SHAPE_SELFOVERLAP>
660.914

>  <PUBCHEM_SHAPE_VOLUME>
180.8

>  <PUBCHEM_COORDINATE_TYPE>
2
5
10

$$$$
11737641
 OpenBabel12092211553D

 27 28  0  0  1  0  0  0  0  0999 V2000
   -4.4920   -0.5490   -0.8566 Br  0  0  0  0  0  0  0  0  0  0  0  0
    4.9236   -0.8846    0.1538 O   0  0  0  0  0  0  0  0  0  0  0  0
    4.6497   -2.4958    1.7254 O   0  0  0  0  0  0  0  0  0  0  0  0
   -1.4911   -1.8961   -0.2929 N   0  0  0  0  0  0  0  0  0  0  0  0
    2.3749   -3.3442    0.4563 N   0  0  0  0  0  0  0  0  0  0  0  0
    0.4131   -1.0857    0.5097 C   0  0  0  0  0  0  0  0  0  0  0  0
    1.8142   -0.9904    0.9673 C   0  0  0  0  0  0  0  0  0  0  0  0
   -0.5465   -0.0352    0.4958 C   0  0  0  0  0  0  0  0  0  0  0  0
    2.7866   -1.9535    0.2475 C   0  0  1  0  0  0  0  0  0  0  0  0
   -1.7324   -0.5700   -0.0122 C   0  0  0  0  0  0  0  0  0  0  0  0
   -0.1972   -2.2169    0.0190 C   0  0  0  0  0  0  0  0  0  0  0  0
   -0.5200    1.3237    0.8677 C   0  0  0  0  0  0  0  0  0  0  0  0
   -2.8977    0.1890   -0.1673 C   0  0  0  0  0  0  0  0  0  0  0  0
   -1.6782    2.0952    0.7181 C   0  0  0  0  0  0  0  0  0  0  0  0
    4.1930   -1.8252    0.8082 C   0  0  0  0  0  0  0  0  0  0  0  0
   -2.8476    1.5346    0.2083 C   0  0  0  0  0  0  0  0  0  0  0  0
    1.8509   -1.1888    2.0474 H   0  0  0  0  0  0  0  0  0  0  0  0
    2.1632    0.0443    0.8444 H   0  0  0  0  0  0  0  0  0  0  0  0
    2.8094   -1.7529   -0.8299 H   0  0  0  0  0  0  0  0  0  0  0  0
    0.1713   -3.2212   -0.1372 H   0  0  0  0  0  0  0  0  0  0  0  0
   -2.1714   -2.5387   -0.6744 H   0  0  0  0  0  0  0  0  0  0  0  0
    0.3797    1.7776    1.2726 H   0  0  0  0  0  0  0  0  0  0  0  0
   -1.6638    3.1434    1.0046 H   0  0  0  0  0  0  0  0  0  0  0  0
   -3.7274    2.1665    0.1069 H   0  0  0  0  0  0  0  0  0  0  0  0
    2.9712   -3.9626   -0.0928 H   0  0  0  0  0  0  0  0  0  0  0  0
    1.4282   -3.4755    0.1019 H   0  0  0  0  0  0  0  0  0  0  0  0
    5.8325   -0.8113    0.5153 H   0  0  0  0  0  0  0  0  0  0  0  0
  1 13  1  0  0  0  0
  2 15  1  0  0  0  0
  2 27  1  0  0  0  0
  3 15  2  0  0  0  0
  4 10  1  0  0  0  0
  4 11  1  0  0  0  0
  4 21  1  0  0  0  0
  5  9  1  0  0  0  0
  5 25  1  0  0  0  0
  5 26  1  0  0  0  0
  6  7  1  0  0  0  0
  6  8  1  0  0  0  0
  6 11  2  0  0  0  0
  7  9  1  0  0  0  0
  7 17  1  0  0  0  0
  7 18  1  0  0  0  0
  8 10  2  0  0  0  0
  8 12  1  0  0  0  0
  9 15  1  0  0  0  0
  9 19  1  6  0  0  0
 10 13  1  0  0  0  0
 11 20  1  0  0  0  0
 12 14  2  0  0  0  0
 12 22  1  0  0  0  0
 13 16  2  0  0  0  0
 14 16  1  0  0  0  0
 14 23  1  0  0  0  0
 16 24  1  0  0  0  0
M  END
>  <PUBCHEM_COMPOUND_CID>
11737641

>  <PUBCHEM_CONFORMER_RMSD>
0.6

>  <PUBCHEM_CONFORMER_DIVERSEORDER>
1
16
19
14
7
13
11
15
18
6
5
12
8
3
17
4
9
2
10

>  <PUBCHEM_MMFF94_PARTIAL_CHARGES>
23
1 -0.11
10 -0.15
11 -0.3
12 -0.15
13 0.11
14 -0.15
15 0.66
16 -0.15
2 -0.65
20 0.15
21 0.27
22 0.15
23 0.15
24 0.15
25 0.36
26 0.36
27 0.5
3 -0.57
4 0.03
5 -0.99
6 -0.18
7 0.18
9 0.33

>  <PUBCHEM_EFFECTIVE_ROTOR_COUNT>
3

>  <PUBCHEM_PHARMACOPHORE_FEATURES>
10
1 1 hydrophobe
1 2 acceptor
1 3 acceptor
1 4 cation
1 4 donor
1 5 cation
1 5 donor
3 2 3 15 anion
5 4 6 8 10 11 rings
6 8 10 12 13 14 16 rings

>  <PUBCHEM_HEAVY_ATOM_COUNT>
16

>  <PUBCHEM_ATOM_DEF_STEREO_COUNT>
1

>  <PUBCHEM_ATOM_UDEF_STEREO_COUNT>
0

>  <PUBCHEM_BOND_DEF_STEREO_COUNT>
0

>  <PUBCHEM_BOND_UDEF_STEREO_COUNT>
0

>  <PUBCHEM_ISOTOPIC_ATOM_COUNT>
0

>  <PUBCHEM_COMPONENT_COUNT>
1

>  <PUBCHEM_CACTVS_TAUTO_COUNT>
1

>  <PUBCHEM_CONFORMER_ID>
00B31A2900000001

>  <PUBCHEM_MMFF94_ENERGY>
21.2917

>  <PUBCHEM_FEATURE_SELFOVERLAP>
50.894

>  <PUBCHEM_SHAPE_FINGERPRINT>
10062212 137 18338790109833023619
11640471 11 17823430464157310204
13538477 17 18334570282594605042
14115302 16 18335699481004429023
14993402 34 18187928339683679406
15775835 57 18260559904629766484
16945 1 18340778082358437947
17802600 8 18261385633398388900
17862501 102 18338228272007223554
18186145 218 18408608041313143461
192875 21 18410006637383965324
20645476 183 18187076252595506835
21524375 3 18333733489768519475
23402539 116 18201710734874874452
23419403 2 16536722669594432170
23557571 272 17489867120170046770
23559900 14 18272087249550677728
2748010 2 16032660553244265307
353137 74 18410576201586879465
474 4 17677053563657309804
5262128 65 17702128961242040124
537710 114 18410572907668599745
53812653 8 18412546496559348171
7364860 26 17839465487959327439
7832392 63 17907866102070327712
9981440 41 17612874108177617872

>  <PUBCHEM_SHAPE_MULTIPOLES>
313.51
6.46
2.11
1.04
0.23
0.15
0.25
0.21
1.49
0.41
-0.22
-0.24
0.17
-0.9

>  <PUBCHEM_SHAPE_SELFOVERLAP>
660.914

>  <PUBCHEM_SHAPE_VOLUME>
180.8

>  <PUBCHEM_COORDINATE_TYPE>
2
5
10

$$$$
11737641
 OpenBabel12092211553D

 27 28  0  0  1  0  0  0  0  0999 V2000
   -4.4920   -0.5490   -0.8566 Br  0  0  0  0  0  0  0  0  0  0  0  0
    1.7584    1.9919   -0.8389 O   0  0  0  0  0  0  0  0  0  0  0  0
    2.0168    2.0403    1.4131 O   0  0  0  0  0  0  0  0  0  0  0  0
   -1.4911   -1.8961   -0.2929 N   0  0  0  0  0  0  0  0  0  0  0  0
    4.0391    0.0583    0.7114 N   0  0  0  0  0  0  0  0  0  0  0  0
    0.4131   -1.0857    0.5097 C   0  0  0  0  0  0  0  0  0  0  0  0
    1.8142   -0.9904    0.9673 C   0  0  0  0  0  0  0  0  0  0  0  0
   -0.5465   -0.0352    0.4958 C   0  0  0  0  0  0  0  0  0  0  0  0
    2.6707    0.0348    0.1884 C   0  0  1  0  0  0  0  0  0  0  0  0
   -1.7324   -0.5700   -0.0122 C   0  0  0  0  0  0  0  0  0  0  0  0
   -0.1972   -2.2169    0.0190 C   0  0  0  0  0  0  0  0  0  0  0  0
   -0.5200    1.3237    0.8677 C   0  0  0  0  0  0  0  0  0  0  0  0
   -2.8977    0.1890   -0.1673 C   0  0  0  0  0  0  0  0  0  0  0  0
   -1.6782    2.0952    0.7181 C   0  0  0  0  0  0  0  0  0  0  0  0
    2.1167    1.4404    0.3502 C   0  0  0  0  0  0  0  0  0  0  0  0
   -2.8476    1.5346    0.2083 C   0  0  0  0  0  0  0  0  0  0  0  0
    2.2837   -1.9806    0.8872 H   0  0  0  0  0  0  0  0  0  0  0  0
    1.8270   -0.7425    2.0377 H   0  0  0  0  0  0  0  0  0  0  0  0
    2.7074   -0.2166   -0.8780 H   0  0  0  0  0  0  0  0  0  0  0  0
    0.1713   -3.2212   -0.1372 H   0  0  0  0  0  0  0  0  0  0  0  0
   -2.1714   -2.5387   -0.6744 H   0  0  0  0  0  0  0  0  0  0  0  0
    0.3797    1.7776    1.2726 H   0  0  0  0  0  0  0  0  0  0  0  0
   -1.6638    3.1434    1.0046 H   0  0  0  0  0  0  0  0  0  0  0  0
   -3.7274    2.1665    0.1069 H   0  0  0  0  0  0  0  0  0  0  0  0
    4.6140    0.6724    0.1353 H   0  0  0  0  0  0  0  0  0  0  0  0
    4.4499   -0.8712    0.6316 H   0  0  0  0  0  0  0  0  0  0  0  0
    1.4083    2.9017   -0.7290 H   0  0  0  0  0  0  0  0  0  0  0  0
  1 13  1  0  0  0  0
  2 15  1  0  0  0  0
  2 27  1  0  0  0  0
  3 15  2  0  0  0  0
  4 10  1  0  0  0  0
  4 11  1  0  0  0  0
  4 21  1  0  0  0  0
  5  9  1  0  0  0  0
  5 25  1  0  0  0  0
  5 26  1  0  0  0  0
  6  7  1  0  0  0  0
  6  8  1  0  0  0  0
  6 11  2  0  0  0  0
  7  9  1  0  0  0  0
  7 17  1  0  0  0  0
  7 18  1  0  0  0  0
  8 10  2  0  0  0  0
  8 12  1  0  0  0  0
  9 15  1  0  0  0  0
  9 19  1  6  0  0  0
 10 13  1  0  0  0  0
 11 20  1  0  0  0  0
 12 14  2  0  0  0  0
 12 22  1  0  0  0  0
 13 16  2  0  0  0  0
 14 16  1  0  0  0  0
 14 23  1  0  0  0  0
 16 24  1  0  0  0  0
M  END
>  <PUBCHEM_COMPOUND_CID>
11737641

>  <PUBCHEM_CONFORMER_RMSD>
0.6

>  <PUBCHEM_CONFORMER_DIVERSEORDER>
1
16
19
14
7
13
11
15
18
6
5
12
8
3
17
4
9
2
10

>  <PUBCHEM_MMFF94_PARTIAL_CHARGES>
23
1 -0.11
10 -0.15
11 -0.3
12 -0.15
13 0.11
14 -0.15
15 0.66
16 -0.15
2 -0.65
20 0.15
21 0.27
22 0.15
23 0.15
24 0.15
25 0.36
26 0.36
27 0.5
3 -0.57
4 0.03
5 -0.99
6 -0.18
7 0.18
9 0.33

>  <PUBCHEM_EFFECTIVE_ROTOR_COUNT>
3

>  <PUBCHEM_PHARMACOPHORE_FEATURES>
10
1 1 hydrophobe
1 2 acceptor
1 3 acceptor
1 4 cation
1 4 donor
1 5 cation
1 5 donor
3 2 3 15 anion
5 4 6 8 10 11 rings
6 8 10 12 13 14 16 rings

>  <PUBCHEM_HEAVY_ATOM_COUNT>
16

>  <PUBCHEM_ATOM_DEF_STEREO_COUNT>
1

>  <PUBCHEM_ATOM_UDEF_STEREO_COUNT>
0

>  <PUBCHEM_BOND_DEF_STEREO_COUNT>
0

>  <PUBCHEM_BOND_UDEF_STEREO_COUNT>
0

>  <PUBCHEM_ISOTOPIC_ATOM_COUNT>
0

>  <PUBCHEM_COMPONENT_COUNT>
1

>  <PUBCHEM_CACTVS_TAUTO_COUNT>
1

>  <PUBCHEM_CONFORMER_ID>
00B31A2900000001

>  <PUBCHEM_MMFF94_ENERGY>
21.2917

>  <PUBCHEM_FEATURE_SELFOVERLAP>
50.894

>  <PUBCHEM_SHAPE_FINGERPRINT>
10062212 137 18338790109833023619
11640471 11 17823430464157310204
13538477 17 18334570282594605042
14115302 16 18335699481004429023
14993402 34 18187928339683679406
15775835 57 18260559904629766484
16945 1 18340778082358437947
17802600 8 18261385633398388900
17862501 102 18338228272007223554
18186145 218 18408608041313143461
192875 21 18410006637383965324
20645476 183 18187076252595506835
21524375 3 18333733489768519475
23402539 116 18201710734874874452
23419403 2 16536722669594432170
23557571 272 17489867120170046770
23559900 14 18272087249550677728
2748010 2 16032660553244265307
353137 74 18410576201586879465
474 4 17677053563657309804
5262128 65 17702128961242040124
537710 114 18410572907668599745
53812653 8 18412546496559348171
7364860 26 17839465487959327439
7832392 63 17907866102070327712
9981440 41 17612874108177617872

>  <PUBCHEM_SHAPE_MULTIPOLES>
313.51
6.46
2.11
1.04
0.23
0.15
0.25
0.21
1.49
0.41
-0.22
-0.24
0.17
-0.9

>  <PUBCHEM_SHAPE_SELFOVERLAP>
660.914

>  <PUBCHEM_SHAPE_VOLUME>
180.8

>  <PUBCHEM_COORDINATE_TYPE>
2
5
10

$$$$
11737641
 OpenBabel12092211553D

 27 28  0  0  1  0  0  0  0  0999 V2000
   -4.4920   -0.5490   -0.8566 Br  0  0  0  0  0  0  0  0  0  0  0  0
    4.4143   -2.6790    1.8420 O   0  0  0  0  0  0  0  0  0  0  0  0
    5.0406   -1.0357    0.4109 O   0  0  0  0  0  0  0  0  0  0  0  0
   -1.4911   -1.8961   -0.2929 N   0  0  0  0  0  0  0  0  0  0  0  0
    2.3749   -3.3442    0.4563 N   0  0  0  0  0  0  0  0  0  0  0  0
    0.4131   -1.0857    0.5097 C   0  0  0  0  0  0  0  0  0  0  0  0
    1.8142   -0.9904    0.9673 C   0  0  0  0  0  0  0  0  0  0  0  0
   -0.5465   -0.0352    0.4958 C   0  0  0  0  0  0  0  0  0  0  0  0
    2.7866   -1.9535    0.2475 C   0  0  1  0  0  0  0  0  0  0  0  0
   -1.7324   -0.5700   -0.0122 C   0  0  0  0  0  0  0  0  0  0  0  0
   -0.1972   -2.2169    0.0190 C   0  0  0  0  0  0  0  0  0  0  0  0
   -0.5200    1.3237    0.8677 C   0  0  0  0  0  0  0  0  0  0  0  0
   -2.8977    0.1890   -0.1673 C   0  0  0  0  0  0  0  0  0  0  0  0
   -1.6782    2.0952    0.7181 C   0  0  0  0  0  0  0  0  0  0  0  0
    4.1930   -1.8252    0.8082 C   0  0  0  0  0  0  0  0  0  0  0  0
   -2.8476    1.5346    0.2083 C   0  0  0  0  0  0  0  0  0  0  0  0
    1.8509   -1.1888    2.0474 H   0  0  0  0  0  0  0  0  0  0  0  0
    2.1632    0.0443    0.8444 H   0  0  0  0  0  0  0  0  0  0  0  0
    2.8094   -1.7529   -0.8299 H   0  0  0  0  0  0  0  0  0  0  0  0
    0.1713   -3.2212   -0.1372 H   0  0  0  0  0  0  0  0  0  0  0  0
   -2.1714   -2.5387   -0.6744 H   0  0  0  0  0  0  0  0  0  0  0  0
    0.3797    1.7776    1.2726 H   0  0  0  0  0  0  0  0  0  0  0  0
   -1.6638    3.1434    1.0046 H   0  0  0  0  0  0  0  0  0  0  0  0
   -3.7274    2.1665    0.1069 H   0  0  0  0  0  0  0  0  0  0  0  0
    2.9712   -3.9626   -0.0928 H   0  0  0  0  0  0  0  0  0  0  0  0
    1.4282   -3.4755    0.1019 H   0  0  0  0  0  0  0  0  0  0  0  0
    5.3212   -2.5867    2.2044 H   0  0  0  0  0  0  0  0  0  0  0  0
  1 13  1  0  0  0  0
  2 15  1  0  0  0  0
  2 27  1  0  0  0  0
  3 15  2  0  0  0  0
  4 10  1  0  0  0  0
  4 11  1  0  0  0  0
  4 21  1  0  0  0  0
  5  9  1  0  0  0  0
  5 25  1  0  0  0  0
  5 26  1  0  0  0  0
  6  7  1  0  0  0  0
  6  8  1  0  0  0  0
  6 11  2  0  0  0  0
  7  9  1  0  0  0  0
  7 17  1  0  0  0  0
  7 18  1  0  0  0  0
  8 10  2  0  0  0  0
  8 12  1  0  0  0  0
  9 15  1  0  0  0  0
  9 19  1  6  0  0  0
 10 13  1  0  0  0  0
 11 20  1  0  0  0  0
 12 14  2  0  0  0  0
 12 22  1  0  0  0  0
 13 16  2  0  0  0  0
 14 16  1  0  0  0  0
 14 23  1  0  0  0  0
 16 24  1  0  0  0  0
M  END
>  <PUBCHEM_COMPOUND_CID>
11737641

>  <PUBCHEM_CONFORMER_RMSD>
0.6

>  <PUBCHEM_CONFORMER_DIVERSEORDER>
1
16
19
14
7
13
11
15
18
6
5
12
8
3
17
4
9
2
10

>  <PUBCHEM_MMFF94_PARTIAL_CHARGES>
23
1 -0.11
10 -0.15
11 -0.3
12 -0.15
13 0.11
14 -0.15
15 0.66
16 -0.15
2 -0.65
20 0.15
21 0.27
22 0.15
23 0.15
24 0.15
25 0.36
26 0.36
27 0.5
3 -0.57
4 0.03
5 -0.99
6 -0.18
7 0.18
9 0.33

>  <PUBCHEM_EFFECTIVE_ROTOR_COUNT>
3

>  <PUBCHEM_PHARMACOPHORE_FEATURES>
10
1 1 hydrophobe
1 2 acceptor
1 3 acceptor
1 4 cation
1 4 donor
1 5 cation
1 5 donor
3 2 3 15 anion
5 4 6 8 10 11 rings
6 8 10 12 13 14 16 rings

>  <PUBCHEM_HEAVY_ATOM_COUNT>
16

>  <PUBCHEM_ATOM_DEF_STEREO_COUNT>
1

>  <PUBCHEM_ATOM_UDEF_STEREO_COUNT>
0

>  <PUBCHEM_BOND_DEF_STEREO_COUNT>
0

>  <PUBCHEM_BOND_UDEF_STEREO_COUNT>
0

>  <PUBCHEM_ISOTOPIC_ATOM_COUNT>
0

>  <PUBCHEM_COMPONENT_COUNT>
1

>  <PUBCHEM_CACTVS_TAUTO_COUNT>
1

>  <PUBCHEM_CONFORMER_ID>
00B31A2900000001

>  <PUBCHEM_MMFF94_ENERGY>
21.2917

>  <PUBCHEM_FEATURE_SELFOVERLAP>
50.894

>  <PUBCHEM_SHAPE_FINGERPRINT>
10062212 137 18338790109833023619
11640471 11 17823430464157310204
13538477 17 18334570282594605042
14115302 16 18335699481004429023
14993402 34 18187928339683679406
15775835 57 18260559904629766484
16945 1 18340778082358437947
17802600 8 18261385633398388900
17862501 102 18338228272007223554
18186145 218 18408608041313143461
192875 21 18410006637383965324
20645476 183 18187076252595506835
21524375 3 18333733489768519475
23402539 116 18201710734874874452
23419403 2 16536722669594432170
23557571 272 17489867120170046770
23559900 14 18272087249550677728
2748010 2 16032660553244265307
353137 74 18410576201586879465
474 4 17677053563657309804
5262128 65 17702128961242040124
537710 114 18410572907668599745
53812653 8 18412546496559348171
7364860 26 17839465487959327439
7832392 63 17907866102070327712
9981440 41 17612874108177617872

>  <PUBCHEM_SHAPE_MULTIPOLES>
313.51
6.46
2.11
1.04
0.23
0.15
0.25
0.21
1.49
0.41
-0.22
-0.24
0.17
-0.9

>  <PUBCHEM_SHAPE_SELFOVERLAP>
660.914

>  <PUBCHEM_SHAPE_VOLUME>
180.8

>  <PUBCHEM_COORDINATE_TYPE>
2
5
10

$$$$
11737641
 OpenBabel12092211553D

 27 28  0  0  1  0  0  0  0  0999 V2000
   -4.4920   -0.5490   -0.8566 Br  0  0  0  0  0  0  0  0  0  0  0  0
    1.2250    2.1671    2.7504 O   0  0  0  0  0  0  0  0  0  0  0  0
    0.9491    0.0514    3.5175 O   0  0  0  0  0  0  0  0  0  0  0  0
   -1.4911   -1.8961   -0.2929 N   0  0  0  0  0  0  0  0  0  0  0  0
    3.6265    0.4089    1.9017 N   0  0  0  0  0  0  0  0  0  0  0  0
    0.4131   -1.0857    0.5097 C   0  0  0  0  0  0  0  0  0  0  0  0
    1.8142   -0.9904    0.9673 C   0  0  0  0  0  0  0  0  0  0  0  0
   -0.5465   -0.0352    0.4958 C   0  0  0  0  0  0  0  0  0  0  0  0
    2.2261    0.4124    1.4709 C   0  0  1  0  0  0  0  0  0  0  0  0
   -1.7324   -0.5700   -0.0122 C   0  0  0  0  0  0  0  0  0  0  0  0
   -0.1972   -2.2169    0.0190 C   0  0  0  0  0  0  0  0  0  0  0  0
   -0.5200    1.3237    0.8677 C   0  0  0  0  0  0  0  0  0  0  0  0
   -2.8977    0.1890   -0.1673 C   0  0  0  0  0  0  0  0  0  0  0  0
   -1.6782    2.0952    0.7181 C   0  0  0  0  0  0  0  0  0  0  0  0
    1.3985    0.8213    2.6779 C   0  0  0  0  0  0  0  0  0  0  0  0
   -2.8476    1.5346    0.2083 C   0  0  0  0  0  0  0  0  0  0  0  0
    2.4793   -1.2823    0.1428 H   0  0  0  0  0  0  0  0  0  0  0  0
    1.9845   -1.7308    1.7612 H   0  0  0  0  0  0  0  0  0  0  0  0
    2.1044    1.1627    0.6809 H   0  0  0  0  0  0  0  0  0  0  0  0
    0.1713   -3.2212   -0.1372 H   0  0  0  0  0  0  0  0  0  0  0  0
   -2.1714   -2.5387   -0.6744 H   0  0  0  0  0  0  0  0  0  0  0  0
    0.3797    1.7776    1.2726 H   0  0  0  0  0  0  0  0  0  0  0  0
   -1.6638    3.1434    1.0046 H   0  0  0  0  0  0  0  0  0  0  0  0
   -3.7274    2.1665    0.1069 H   0  0  0  0  0  0  0  0  0  0  0  0
    3.9098    1.3566    2.1489 H   0  0  0  0  0  0  0  0  0  0  0  0
    4.2214    0.1297    1.1224 H   0  0  0  0  0  0  0  0  0  0  0  0
    0.6962    2.4255    3.5352 H   0  0  0  0  0  0  0  0  0  0  0  0
  1 13  1  0  0  0  0
  2 15  1  0  0  0  0
  2 27  1  0  0  0  0
  3 15  2  0  0  0  0
  4 10  1  0  0  0  0
  4 11  1  0  0  0  0
  4 21  1  0  0  0  0
  5  9  1  0  0  0  0
  5 25  1  0  0  0  0
  5 26  1  0  0  0  0
  6  7  1  0  0  0  0
  6  8  1  0  0  0  0
  6 11  2  0  0  0  0
  7  9  1  0  0  0  0
  7 17  1  0  0  0  0
  7 18  1  0  0  0  0
  8 10  2  0  0  0  0
  8 12  1  0  0  0  0
  9 15  1  0  0  0  0
  9 19  1  6  0  0  0
 10 13  1  0  0  0  0
 11 20  1  0  0  0  0
 12 14  2  0  0  0  0
 12 22  1  0  0  0  0
 13 16  2  0  0  0  0
 14 16  1  0  0  0  0
 14 23  1  0  0  0  0
 16 24  1  0  0  0  0
M  END
>  <PUBCHEM_COMPOUND_CID>
11737641

>  <PUBCHEM_CONFORMER_RMSD>
0.6

>  <PUBCHEM_CONFORMER_DIVERSEORDER>
1
16
19
14
7
13
11
15
18
6
5
12
8
3
17
4
9
2
10

>  <PUBCHEM_MMFF94_PARTIAL_CHARGES>
23
1 -0.11
10 -0.15
11 -0.3
12 -0.15
13 0.11
14 -0.15
15 0.66
16 -0.15
2 -0.65
20 0.15
21 0.27
22 0.15
23 0.15
24 0.15
25 0.36
26 0.36
27 0.5
3 -0.57
4 0.03
5 -0.99
6 -0.18
7 0.18
9 0.33

>  <PUBCHEM_EFFECTIVE_ROTOR_COUNT>
3

>  <PUBCHEM_PHARMACOPHORE_FEATURES>
10
1 1 hydrophobe
1 2 acceptor
1 3 acceptor
1 4 cation
1 4 donor
1 5 cation
1 5 donor
3 2 3 15 anion
5 4 6 8 10 11 rings
6 8 10 12 13 14 16 rings

>  <PUBCHEM_HEAVY_ATOM_COUNT>
16

>  <PUBCHEM_ATOM_DEF_STEREO_COUNT>
1

>  <PUBCHEM_ATOM_UDEF_STEREO_COUNT>
0

>  <PUBCHEM_BOND_DEF_STEREO_COUNT>
0

>  <PUBCHEM_BOND_UDEF_STEREO_COUNT>
0

>  <PUBCHEM_ISOTOPIC_ATOM_COUNT>
0

>  <PUBCHEM_COMPONENT_COUNT>
1

>  <PUBCHEM_CACTVS_TAUTO_COUNT>
1

>  <PUBCHEM_CONFORMER_ID>
00B31A2900000001

>  <PUBCHEM_MMFF94_ENERGY>
21.2917

>  <PUBCHEM_FEATURE_SELFOVERLAP>
50.894

>  <PUBCHEM_SHAPE_FINGERPRINT>
10062212 137 18338790109833023619
11640471 11 17823430464157310204
13538477 17 18334570282594605042
14115302 16 18335699481004429023
14993402 34 18187928339683679406
15775835 57 18260559904629766484
16945 1 18340778082358437947
17802600 8 18261385633398388900
17862501 102 18338228272007223554
18186145 218 18408608041313143461
192875 21 18410006637383965324
20645476 183 18187076252595506835
21524375 3 18333733489768519475
23402539 116 18201710734874874452
23419403 2 16536722669594432170
23557571 272 17489867120170046770
23559900 14 18272087249550677728
2748010 2 16032660553244265307
353137 74 18410576201586879465
474 4 17677053563657309804
5262128 65 17702128961242040124
537710 114 18410572907668599745
53812653 8 18412546496559348171
7364860 26 17839465487959327439
7832392 63 17907866102070327712
9981440 41 17612874108177617872

>  <PUBCHEM_SHAPE_MULTIPOLES>
313.51
6.46
2.11
1.04
0.23
0.15
0.25
0.21
1.49
0.41
-0.22
-0.24
0.17
-0.9

>  <PUBCHEM_SHAPE_SELFOVERLAP>
660.914

>  <PUBCHEM_SHAPE_VOLUME>
180.8

>  <PUBCHEM_COORDINATE_TYPE>
2
5
10

$$$$
11737641
 OpenBabel12092211553D

 27 28  0  0  1  0  0  0  0  0999 V2000
   -4.4920   -0.5490   -0.8566 Br  0  0  0  0  0  0  0  0  0  0  0  0
    0.0141    0.6425    3.0816 O   0  0  0  0  0  0  0  0  0  0  0  0
    1.8578    1.8615    2.5755 O   0  0  0  0  0  0  0  0  0  0  0  0
   -1.4911   -1.8961   -0.2929 N   0  0  0  0  0  0  0  0  0  0  0  0
    1.3151   -1.5414    3.3259 N   0  0  0  0  0  0  0  0  0  0  0  0
    0.4131   -1.0857    0.5097 C   0  0  0  0  0  0  0  0  0  0  0  0
    1.8142   -0.9904    0.9673 C   0  0  0  0  0  0  0  0  0  0  0  0
   -0.5465   -0.0352    0.4958 C   0  0  0  0  0  0  0  0  0  0  0  0
    1.9741   -0.5716    2.4472 C   0  0  1  0  0  0  0  0  0  0  0  0
   -1.7324   -0.5700   -0.0122 C   0  0  0  0  0  0  0  0  0  0  0  0
   -0.1972   -2.2169    0.0190 C   0  0  0  0  0  0  0  0  0  0  0  0
   -0.5200    1.3237    0.8677 C   0  0  0  0  0  0  0  0  0  0  0  0
   -2.8977    0.1890   -0.1673 C   0  0  0  0  0  0  0  0  0  0  0  0
   -1.6782    2.0952    0.7181 C   0  0  0  0  0  0  0  0  0  0  0  0
    1.3137    0.7722    2.7063 C   0  0  0  0  0  0  0  0  0  0  0  0
   -2.8476    1.5346    0.2083 C   0  0  0  0  0  0  0  0  0  0  0  0
    2.3481   -0.2690    0.3334 H   0  0  0  0  0  0  0  0  0  0  0  0
    2.3130   -1.9555    0.8022 H   0  0  0  0  0  0  0  0  0  0  0  0
    3.0331   -0.5110    2.7241 H   0  0  0  0  0  0  0  0  0  0  0  0
    0.1713   -3.2212   -0.1372 H   0  0  0  0  0  0  0  0  0  0  0  0
   -2.1714   -2.5387   -0.6744 H   0  0  0  0  0  0  0  0  0  0  0  0
    0.3797    1.7776    1.2726 H   0  0  0  0  0  0  0  0  0  0  0  0
   -1.6638    3.1434    1.0046 H   0  0  0  0  0  0  0  0  0  0  0  0
   -3.7274    2.1665    0.1069 H   0  0  0  0  0  0  0  0  0  0  0  0
    1.5013   -1.3016    4.2992 H   0  0  0  0  0  0  0  0  0  0  0  0
    1.7216   -2.4646    3.1790 H   0  0  0  0  0  0  0  0  0  0  0  0
   -0.4088    1.5132    3.2405 H   0  0  0  0  0  0  0  0  0  0  0  0
  1 13  1  0  0  0  0
  2 15  1  0  0  0  0
  2 27  1  0  0  0  0
  3 15  2  0  0  0  0
  4 10  1  0  0  0  0
  4 11  1  0  0  0  0
  4 21  1  0  0  0  0
  5  9  1  0  0  0  0
  5 25  1  0  0  0  0
  5 26  1  0  0  0  0
  6  7  1  0  0  0  0
  6  8  1  0  0  0  0
  6 11  2  0  0  0  0
  7  9  1  0  0  0  0
  7 17  1  0  0  0  0
  7 18  1  0  0  0  0
  8 10  2  0  0  0  0
  8 12  1  0  0  0  0
  9 15  1  0  0  0  0
  9 19  1  1  0  0  0
 10 13  1  0  0  0  0
 11 20  1  0  0  0  0
 12 14  2  0  0  0  0
 12 22  1  0  0  0  0
 13 16  2  0  0  0  0
 14 16  1  0  0  0  0
 14 23  1  0  0  0  0
 16 24  1  0  0  0  0
M  END
>  <PUBCHEM_COMPOUND_CID>
11737641

>  <PUBCHEM_CONFORMER_RMSD>
0.6

>  <PUBCHEM_CONFORMER_DIVERSEORDER>
1
16
19
14
7
13
11
15
18
6
5
12
8
3
17
4
9
2
10

>  <PUBCHEM_MMFF94_PARTIAL_CHARGES>
23
1 -0.11
10 -0.15
11 -0.3
12 -0.15
13 0.11
14 -0.15
15 0.66
16 -0.15
2 -0.65
20 0.15
21 0.27
22 0.15
23 0.15
24 0.15
25 0.36
26 0.36
27 0.5
3 -0.57
4 0.03
5 -0.99
6 -0.18
7 0.18
9 0.33

>  <PUBCHEM_EFFECTIVE_ROTOR_COUNT>
3

>  <PUBCHEM_PHARMACOPHORE_FEATURES>
10
1 1 hydrophobe
1 2 acceptor
1 3 acceptor
1 4 cation
1 4 donor
1 5 cation
1 5 donor
3 2 3 15 anion
5 4 6 8 10 11 rings
6 8 10 12 13 14 16 rings

>  <PUBCHEM_HEAVY_ATOM_COUNT>
16

>  <PUBCHEM_ATOM_DEF_STEREO_COUNT>
1

>  <PUBCHEM_ATOM_UDEF_STEREO_COUNT>
0

>  <PUBCHEM_BOND_DEF_STEREO_COUNT>
0

>  <PUBCHEM_BOND_UDEF_STEREO_COUNT>
0

>  <PUBCHEM_ISOTOPIC_ATOM_COUNT>
0

>  <PUBCHEM_COMPONENT_COUNT>
1

>  <PUBCHEM_CACTVS_TAUTO_COUNT>
1

>  <PUBCHEM_CONFORMER_ID>
00B31A2900000001

>  <PUBCHEM_MMFF94_ENERGY>
21.2917

>  <PUBCHEM_FEATURE_SELFOVERLAP>
50.894

>  <PUBCHEM_SHAPE_FINGERPRINT>
10062212 137 18338790109833023619
11640471 11 17823430464157310204
13538477 17 18334570282594605042
14115302 16 18335699481004429023
14993402 34 18187928339683679406
15775835 57 18260559904629766484
16945 1 18340778082358437947
17802600 8 18261385633398388900
17862501 102 18338228272007223554
18186145 218 18408608041313143461
192875 21 18410006637383965324
20645476 183 18187076252595506835
21524375 3 18333733489768519475
23402539 116 18201710734874874452
23419403 2 16536722669594432170
23557571 272 17489867120170046770
23559900 14 18272087249550677728
2748010 2 16032660553244265307
353137 74 18410576201586879465
474 4 17677053563657309804
5262128 65 17702128961242040124
537710 114 18410572907668599745
53812653 8 18412546496559348171
7364860 26 17839465487959327439
7832392 63 17907866102070327712
9981440 41 17612874108177617872

>  <PUBCHEM_SHAPE_MULTIPOLES>
313.51
6.46
2.11
1.04
0.23
0.15
0.25
0.21
1.49
0.41
-0.22
-0.24
0.17
-0.9

>  <PUBCHEM_SHAPE_SELFOVERLAP>
660.914

>  <PUBCHEM_SHAPE_VOLUME>
180.8

>  <PUBCHEM_COORDINATE_TYPE>
2
5
10

$$$$
