3081936
 OpenBabel12092211553D

 27 28  0  0  1  0  0  0  0  0999 V2000
    4.3479    0.5117   -0.8201 Cl  0  0  0  0  0  0  0  0  0  0  0  0
   -5.1583    0.8480   -0.5337 O   0  0  0  0  0  0  0  0  0  0  0  0
   -4.5310    0.3155    1.5791 O   0  0  0  0  0  0  0  0  0  0  0  0
    1.4891    1.9059   -0.3135 N   0  0  0  0  0  0  0  0  0  0  0  0
   -2.8074    1.5744   -1.2170 N   0  0  0  0  0  0  0  0  0  0  0  0
   -0.4072    1.0903    0.5027 C   0  0  0  0  0  0  0  0  0  0  0  0
   -1.8055    0.9898    0.9672 C   0  0  0  0  0  0  0  0  0  0  0  0
    0.5575    0.0444    0.4891 C   0  0  0  0  0  0  0  0  0  0  0  0
   -2.8152    0.5885   -0.1331 C   0  0  1  0  0  0  0  0  0  0  0  0
    1.7382    0.5824   -0.0274 C   0  0  0  0  0  0  0  0  0  0  0  0
    0.1953    2.2221    0.0036 C   0  0  0  0  0  0  0  0  0  0  0  0
    0.5395   -1.3127    0.8678 C   0  0  0  0  0  0  0  0  0  0  0  0
    2.9065   -0.1717   -0.1847 C   0  0  0  0  0  0  0  0  0  0  0  0
    1.7006   -2.0794    0.7161 C   0  0  0  0  0  0  0  0  0  0  0  0
   -4.2317    0.5536    0.4157 C   0  0  0  0  0  0  0  0  0  0  0  0
    2.8648   -1.5156    0.1977 C   0  0  0  0  0  0  0  0  0  0  0  0
   -2.1096    1.9553    1.3946 H   0  0  0  0  0  0  0  0  0  0  0  0
   -1.8588    0.2696    1.7955 H   0  0  0  0  0  0  0  0  0  0  0  0
   -2.5675   -0.3942   -0.5515 H   0  0  0  0  0  0  0  0  0  0  0  0
   -0.1789    3.2239   -0.1557 H   0  0  0  0  0  0  0  0  0  0  0  0
    2.1643    2.5499   -0.7016 H   0  0  0  0  0  0  0  0  0  0  0  0
   -0.3558   -1.7691    1.2795 H   0  0  0  0  0  0  0  0  0  0  0  0
    1.6927   -3.1263    1.0079 H   0  0  0  0  0  0  0  0  0  0  0  0
    3.7486   -2.1417    0.0947 H   0  0  0  0  0  0  0  0  0  0  0  0
   -3.4113    1.2547   -1.9736 H   0  0  0  0  0  0  0  0  0  0  0  0
   -1.8695    1.6388   -1.6113 H   0  0  0  0  0  0  0  0  0  0  0  0
   -6.0700    0.8308   -0.1720 H   0  0  0  0  0  0  0  0  0  0  0  0
  1 13  1  0  0  0  0
  2 15  1  0  0  0  0
  2 27  1  0  0  0  0
  3 15  2  0  0  0  0
  4 10  1  0  0  0  0
  4 11  1  0  0  0  0
  4 21  1  0  0  0  0
  5  9  1  0  0  0  0
  5 25  1  0  0  0  0
  5 26  1  0  0  0  0
  6  7  1  0  0  0  0
  6  8  1  0  0  0  0
  6 11  2  0  0  0  0
  7  9  1  0  0  0  0
  7 17  1  0  0  0  0
  7 18  1  0  0  0  0
  8 10  2  0  0  0  0
  8 12  1  0  0  0  0
  9 15  1  0  0  0  0
  9 19  1  6  0  0  0
 10 13  1  0  0  0  0
 11 20  1  0  0  0  0
 12 14  2  0  0  0  0
 12 22  1  0  0  0  0
 13 16  2  0  0  0  0
 14 16  1  0  0  0  0
 14 23  1  0  0  0  0
 16 24  1  0  0  0  0
M  END
>  <PUBCHEM_COMPOUND_CID>
3081936

>  <PUBCHEM_CONFORMER_RMSD>
0.6

>  <PUBCHEM_CONFORMER_DIVERSEORDER>
1
16
18
12
6
14
13
15
5
9
11
7
3
17
8
4
2
10

>  <PUBCHEM_MMFF94_PARTIAL_CHARGES>
23
1 -0.18
10 -0.15
11 -0.3
12 -0.15
13 0.18
14 -0.15
15 0.66
16 -0.15
2 -0.65
20 0.15
21 0.27
22 0.15
23 0.15
24 0.15
25 0.36
26 0.36
27 0.5
3 -0.57
4 0.03
5 -0.99
6 -0.18
7 0.18
9 0.33

>  <PUBCHEM_EFFECTIVE_ROTOR_COUNT>
3

>  <PUBCHEM_PHARMACOPHORE_FEATURES>
9
1 2 acceptor
1 3 acceptor
1 4 cation
1 4 donor
1 5 cation
1 5 donor
3 2 3 15 anion
5 4 6 8 10 11 rings
6 8 10 12 13 14 16 rings

>  <PUBCHEM_HEAVY_ATOM_COUNT>
16

>  <PUBCHEM_ATOM_DEF_STEREO_COUNT>
1

>  <PUBCHEM_ATOM_UDEF_STEREO_COUNT>
0

>  <PUBCHEM_BOND_DEF_STEREO_COUNT>
0

>  <PUBCHEM_BOND_UDEF_STEREO_COUNT>
0

>  <PUBCHEM_ISOTOPIC_ATOM_COUNT>
0

>  <PUBCHEM_COMPONENT_COUNT>
1

>  <PUBCHEM_CACTVS_TAUTO_COUNT>
1

>  <PUBCHEM_CONFORMER_ID>
002F06D000000001

>  <PUBCHEM_MMFF94_ENERGY>
21.1611

>  <PUBCHEM_FEATURE_SELFOVERLAP>
45.82

>  <PUBCHEM_SHAPE_FINGERPRINT>
11578080 2 17984388924466825000
124424 183 13686303465081884254
12553582 1 18411975828143526921
13221675 6 18412827958434911515
14576447 43 18340199790755604503
15375462 189 18409729534599286731
15775835 57 18334861610268107463
16945 1 18336255791022852248
18186145 218 18334289916019968276
20645476 183 18412826893626043687
21634736 98 18269552921791453590
22112679 90 18270106921196644770
232386 152 17775000210831931829
23388829 49 18336548222809405032
23402539 116 18410292511045120260
23402655 69 18335140847572397877
23559900 14 18339087094691280412
25 1 18186239536893781042
2748010 2 16032970615544397136
2871803 45 18192422198631418127
3312278 4 18412265042788448683
34934 24 18412260597376354768
528886 8 18407760339401988560
63268167 104 18335700520365318296
7364860 26 18058442273837337785
90525 40 18128818534492151421

>  <PUBCHEM_SHAPE_MULTIPOLES>
309.44
6.2
2.12
1.03
0.36
0.09
-0.23
0.5
-1.22
-0.4
0.18
0.26
0.17
-0.87

>  <PUBCHEM_SHAPE_SELFOVERLAP>
658.378

>  <PUBCHEM_SHAPE_VOLUME>
173.9

>  <PUBCHEM_COORDINATE_TYPE>
2
5
10

$$$$
3081936
 OpenBabel12092211553D

 27 28  0  0  1  0  0  0  0  0999 V2000
    4.3479    0.5117   -0.8201 Cl  0  0  0  0  0  0  0  0  0  0  0  0
   -1.1244    2.8679    4.0502 O   0  0  0  0  0  0  0  0  0  0  0  0
   -1.6907    3.6798    2.0102 O   0  0  0  0  0  0  0  0  0  0  0  0
    1.4891    1.9059   -0.3135 N   0  0  0  0  0  0  0  0  0  0  0  0
   -3.4156    1.1792    2.8348 N   0  0  0  0  0  0  0  0  0  0  0  0
   -0.4072    1.0903    0.5027 C   0  0  0  0  0  0  0  0  0  0  0  0
   -1.8055    0.9898    0.9672 C   0  0  0  0  0  0  0  0  0  0  0  0
    0.5575    0.0444    0.4891 C   0  0  0  0  0  0  0  0  0  0  0  0
   -2.0025    1.3043    2.4684 C   0  0  1  0  0  0  0  0  0  0  0  0
    1.7382    0.5824   -0.0274 C   0  0  0  0  0  0  0  0  0  0  0  0
    0.1953    2.2221    0.0036 C   0  0  0  0  0  0  0  0  0  0  0  0
    0.5395   -1.3127    0.8678 C   0  0  0  0  0  0  0  0  0  0  0  0
    2.9065   -0.1717   -0.1847 C   0  0  0  0  0  0  0  0  0  0  0  0
    1.7006   -2.0794    0.7161 C   0  0  0  0  0  0  0  0  0  0  0  0
   -1.5946    2.7340    2.7822 C   0  0  0  0  0  0  0  0  0  0  0  0
    2.8648   -1.5156    0.1977 C   0  0  0  0  0  0  0  0  0  0  0  0
   -2.1768   -0.0242    0.7641 H   0  0  0  0  0  0  0  0  0  0  0  0
   -2.4338    1.6610    0.3653 H   0  0  0  0  0  0  0  0  0  0  0  0
   -1.4168    0.6184    3.0917 H   0  0  0  0  0  0  0  0  0  0  0  0
   -0.1789    3.2239   -0.1557 H   0  0  0  0  0  0  0  0  0  0  0  0
    2.1643    2.5499   -0.7016 H   0  0  0  0  0  0  0  0  0  0  0  0
   -0.3558   -1.7691    1.2795 H   0  0  0  0  0  0  0  0  0  0  0  0
    1.6927   -3.1263    1.0079 H   0  0  0  0  0  0  0  0  0  0  0  0
    3.7486   -2.1417    0.0947 H   0  0  0  0  0  0  0  0  0  0  0  0
   -3.5196    1.3036    3.8414 H   0  0  0  0  0  0  0  0  0  0  0  0
   -3.7370    0.2333    2.6317 H   0  0  0  0  0  0  0  0  0  0  0  0
   -0.8693    3.7940    4.2491 H   0  0  0  0  0  0  0  0  0  0  0  0
  1 13  1  0  0  0  0
  2 15  1  0  0  0  0
  2 27  1  0  0  0  0
  3 15  2  0  0  0  0
  4 10  1  0  0  0  0
  4 11  1  0  0  0  0
  4 21  1  0  0  0  0
  5  9  1  0  0  0  0
  5 25  1  0  0  0  0
  5 26  1  0  0  0  0
  6  7  1  0  0  0  0
  6  8  1  0  0  0  0
  6 11  2  0  0  0  0
  7  9  1  0  0  0  0
  7 17  1  0  0  0  0
  7 18  1  0  0  0  0
  8 10  2  0  0  0  0
  8 12  1  0  0  0  0
  9 15  1  0  0  0  0
  9 19  1  1  0  0  0
 10 13  1  0  0  0  0
 11 20  1  0  0  0  0
 12 14  2  0  0  0  0
 12 22  1  0  0  0  0
 13 16  2  0  0  0  0
 14 16  1  0  0  0  0
 14 23  1  0  0  0  0
 16 24  1  0  0  0  0
M  END
>  <PUBCHEM_COMPOUND_CID>
3081936

>  <PUBCHEM_CONFORMER_RMSD>
0.6

>  <PUBCHEM_CONFORMER_DIVERSEORDER>
1
16
18
12
6
14
13
15
5
9
11
7
3
17
8
4
2
10

>  <PUBCHEM_MMFF94_PARTIAL_CHARGES>
23
1 -0.18
10 -0.15
11 -0.3
12 -0.15
13 0.18
14 -0.15
15 0.66
16 -0.15
2 -0.65
20 0.15
21 0.27
22 0.15
23 0.15
24 0.15
25 0.36
26 0.36
27 0.5
3 -0.57
4 0.03
5 -0.99
6 -0.18
7 0.18
9 0.33

>  <PUBCHEM_EFFECTIVE_ROTOR_COUNT>
3

>  <PUBCHEM_PHARMACOPHORE_FEATURES>
9
1 2 acceptor
1 3 acceptor
1 4 cation
1 4 donor
1 5 cation
1 5 donor
3 2 3 15 anion
5 4 6 8 10 11 rings
6 8 10 12 13 14 16 rings

>  <PUBCHEM_HEAVY_ATOM_COUNT>
16

>  <PUBCHEM_ATOM_DEF_STEREO_COUNT>
1

>  <PUBCHEM_ATOM_UDEF_STEREO_COUNT>
0

>  <PUBCHEM_BOND_DEF_STEREO_COUNT>
0

>  <PUBCHEM_BOND_UDEF_STEREO_COUNT>
0

>  <PUBCHEM_ISOTOPIC_ATOM_COUNT>
0

>  <PUBCHEM_COMPONENT_COUNT>
1

>  <PUBCHEM_CACTVS_TAUTO_COUNT>
1

>  <PUBCHEM_CONFORMER_ID>
002F06D000000001

>  <PUBCHEM_MMFF94_ENERGY>
21.1611

>  <PUBCHEM_FEATURE_SELFOVERLAP>
45.82

>  <PUBCHEM_SHAPE_FINGERPRINT>
11578080 2 17984388924466825000
124424 183 13686303465081884254
12553582 1 18411975828143526921
13221675 6 18412827958434911515
14576447 43 18340199790755604503
15375462 189 18409729534599286731
15775835 57 18334861610268107463
16945 1 18336255791022852248
18186145 218 18334289916019968276
20645476 183 18412826893626043687
21634736 98 18269552921791453590
22112679 90 18270106921196644770
232386 152 17775000210831931829
23388829 49 18336548222809405032
23402539 116 18410292511045120260
23402655 69 18335140847572397877
23559900 14 18339087094691280412
25 1 18186239536893781042
2748010 2 16032970615544397136
2871803 45 18192422198631418127
3312278 4 18412265042788448683
34934 24 18412260597376354768
528886 8 18407760339401988560
63268167 104 18335700520365318296
7364860 26 18058442273837337785
90525 40 18128818534492151421

>  <PUBCHEM_SHAPE_MULTIPOLES>
309.44
6.2
2.12
1.03
0.36
0.09
-0.23
0.5
-1.22
-0.4
0.18
0.26
0.17
-0.87

>  <PUBCHEM_SHAPE_SELFOVERLAP>
658.378

>  <PUBCHEM_SHAPE_VOLUME>
173.9

>  <PUBCHEM_COORDINATE_TYPE>
2
5
10

$$$$
3081936
 OpenBabel12092211553D

 27 28  0  0  1  0  0  0  0  0999 V2000
    4.3479    0.5117   -0.8201 Cl  0  0  0  0  0  0  0  0  0  0  0  0
   -3.8103    1.9667    3.8865 O   0  0  0  0  0  0  0  0  0  0  0  0
   -4.2360    0.3278    2.3786 O   0  0  0  0  0  0  0  0  0  0  0  0
    1.4891    1.9059   -0.3135 N   0  0  0  0  0  0  0  0  0  0  0  0
   -1.2237    0.3750    3.2909 N   0  0  0  0  0  0  0  0  0  0  0  0
   -0.4072    1.0903    0.5027 C   0  0  0  0  0  0  0  0  0  0  0  0
   -1.8055    0.9898    0.9672 C   0  0  0  0  0  0  0  0  0  0  0  0
    0.5575    0.0444    0.4891 C   0  0  0  0  0  0  0  0  0  0  0  0
   -2.0025    1.3043    2.4684 C   0  0  1  0  0  0  0  0  0  0  0  0
    1.7382    0.5824   -0.0274 C   0  0  0  0  0  0  0  0  0  0  0  0
    0.1953    2.2221    0.0036 C   0  0  0  0  0  0  0  0  0  0  0  0
    0.5395   -1.3127    0.8678 C   0  0  0  0  0  0  0  0  0  0  0  0
    2.9065   -0.1717   -0.1847 C   0  0  0  0  0  0  0  0  0  0  0  0
    1.7006   -2.0794    0.7161 C   0  0  0  0  0  0  0  0  0  0  0  0
   -3.4570    1.1329    2.8733 C   0  0  0  0  0  0  0  0  0  0  0  0
    2.8648   -1.5156    0.1977 C   0  0  0  0  0  0  0  0  0  0  0  0
   -2.1768   -0.0242    0.7641 H   0  0  0  0  0  0  0  0  0  0  0  0
   -2.4338    1.6610    0.3653 H   0  0  0  0  0  0  0  0  0  0  0  0
   -1.6835    2.3278    2.6985 H   0  0  0  0  0  0  0  0  0  0  0  0
   -0.1789    3.2239   -0.1557 H   0  0  0  0  0  0  0  0  0  0  0  0
    2.1643    2.5499   -0.7016 H   0  0  0  0  0  0  0  0  0  0  0  0
   -0.3558   -1.7691    1.2795 H   0  0  0  0  0  0  0  0  0  0  0  0
    1.6927   -3.1263    1.0079 H   0  0  0  0  0  0  0  0  0  0  0  0
    3.7486   -2.1417    0.0947 H   0  0  0  0  0  0  0  0  0  0  0  0
   -1.2931    0.6463    4.2713 H   0  0  0  0  0  0  0  0  0  0  0  0
   -0.2369    0.4490    3.0459 H   0  0  0  0  0  0  0  0  0  0  0  0
   -4.7481    1.8466    4.1482 H   0  0  0  0  0  0  0  0  0  0  0  0
  1 13  1  0  0  0  0
  2 15  1  0  0  0  0
  2 27  1  0  0  0  0
  3 15  2  0  0  0  0
  4 10  1  0  0  0  0
  4 11  1  0  0  0  0
  4 21  1  0  0  0  0
  5  9  1  0  0  0  0
  5 25  1  0  0  0  0
  5 26  1  0  0  0  0
  6  7  1  0  0  0  0
  6  8  1  0  0  0  0
  6 11  2  0  0  0  0
  7  9  1  0  0  0  0
  7 17  1  0  0  0  0
  7 18  1  0  0  0  0
  8 10  2  0  0  0  0
  8 12  1  0  0  0  0
  9 15  1  0  0  0  0
  9 19  1  1  0  0  0
 10 13  1  0  0  0  0
 11 20  1  0  0  0  0
 12 14  2  0  0  0  0
 12 22  1  0  0  0  0
 13 16  2  0  0  0  0
 14 16  1  0  0  0  0
 14 23  1  0  0  0  0
 16 24  1  0  0  0  0
M  END
>  <PUBCHEM_COMPOUND_CID>
3081936

>  <PUBCHEM_CONFORMER_RMSD>
0.6

>  <PUBCHEM_CONFORMER_DIVERSEORDER>
1
16
18
12
6
14
13
15
5
9
11
7
3
17
8
4
2
10

>  <PUBCHEM_MMFF94_PARTIAL_CHARGES>
23
1 -0.18
10 -0.15
11 -0.3
12 -0.15
13 0.18
14 -0.15
15 0.66
16 -0.15
2 -0.65
20 0.15
21 0.27
22 0.15
23 0.15
24 0.15
25 0.36
26 0.36
27 0.5
3 -0.57
4 0.03
5 -0.99
6 -0.18
7 0.18
9 0.33

>  <PUBCHEM_EFFECTIVE_ROTOR_COUNT>
3

>  <PUBCHEM_PHARMACOPHORE_FEATURES>
9
1 2 acceptor
1 3 acceptor
1 4 cation
1 4 donor
1 5 cation
1 5 donor
3 2 3 15 anion
5 4 6 8 10 11 rings
6 8 10 12 13 14 16 rings

>  <PUBCHEM_HEAVY_ATOM_COUNT>
16

>  <PUBCHEM_ATOM_DEF_STEREO_COUNT>
1

>  <PUBCHEM_ATOM_UDEF_STEREO_COUNT>
0

>  <PUBCHEM_BOND_DEF_STEREO_COUNT>
0

>  <PUBCHEM_BOND_UDEF_STEREO_COUNT>
0

>  <PUBCHEM_ISOTOPIC_ATOM_COUNT>
0

>  <PUBCHEM_COMPONENT_COUNT>
1

>  <PUBCHEM_CACTVS_TAUTO_COUNT>
1

>  <PUBCHEM_CONFORMER_ID>
002F06D000000001

>  <PUBCHEM_MMFF94_ENERGY>
21.1611

>  <PUBCHEM_FEATURE_SELFOVERLAP>
45.82

>  <PUBCHEM_SHAPE_FINGERPRINT>
11578080 2 17984388924466825000
124424 183 13686303465081884254
12553582 1 18411975828143526921
13221675 6 18412827958434911515
14576447 43 18340199790755604503
15375462 189 18409729534599286731
15775835 57 18334861610268107463
16945 1 18336255791022852248
18186145 218 18334289916019968276
20645476 183 18412826893626043687
21634736 98 18269552921791453590
22112679 90 18270106921196644770
232386 152 17775000210831931829
23388829 49 18336548222809405032
23402539 116 18410292511045120260
23402655 69 18335140847572397877
23559900 14 18339087094691280412
25 1 18186239536893781042
2748010 2 16032970615544397136
2871803 45 18192422198631418127
3312278 4 18412265042788448683
34934 24 18412260597376354768
528886 8 18407760339401988560
63268167 104 18335700520365318296
7364860 26 18058442273837337785
90525 40 18128818534492151421

>  <PUBCHEM_SHAPE_MULTIPOLES>
309.44
6.2
2.12
1.03
0.36
0.09
-0.23
0.5
-1.22
-0.4
0.18
0.26
0.17
-0.87

>  <PUBCHEM_SHAPE_SELFOVERLAP>
658.378

>  <PUBCHEM_SHAPE_VOLUME>
173.9

>  <PUBCHEM_COORDINATE_TYPE>
2
5
10

$$$$
3081936
 OpenBabel12092211553D

 27 28  0  0  1  0  0  0  0  0999 V2000
    4.3479    0.5117   -0.8201 Cl  0  0  0  0  0  0  0  0  0  0  0  0
   -4.2856    1.9506    2.1723 O   0  0  0  0  0  0  0  0  0  0  0  0
   -3.8611    0.3723    3.7439 O   0  0  0  0  0  0  0  0  0  0  0  0
    1.4891    1.9059   -0.3135 N   0  0  0  0  0  0  0  0  0  0  0  0
   -1.2237    0.3750    3.2909 N   0  0  0  0  0  0  0  0  0  0  0  0
   -0.4072    1.0903    0.5027 C   0  0  0  0  0  0  0  0  0  0  0  0
   -1.8055    0.9898    0.9672 C   0  0  0  0  0  0  0  0  0  0  0  0
    0.5575    0.0444    0.4891 C   0  0  0  0  0  0  0  0  0  0  0  0
   -2.0025    1.3043    2.4684 C   0  0  1  0  0  0  0  0  0  0  0  0
    1.7382    0.5824   -0.0274 C   0  0  0  0  0  0  0  0  0  0  0  0
    0.1953    2.2221    0.0036 C   0  0  0  0  0  0  0  0  0  0  0  0
    0.5395   -1.3127    0.8678 C   0  0  0  0  0  0  0  0  0  0  0  0
    2.9065   -0.1717   -0.1847 C   0  0  0  0  0  0  0  0  0  0  0  0
    1.7006   -2.0794    0.7161 C   0  0  0  0  0  0  0  0  0  0  0  0
   -3.4570    1.1329    2.8733 C   0  0  0  0  0  0  0  0  0  0  0  0
    2.8648   -1.5156    0.1977 C   0  0  0  0  0  0  0  0  0  0  0  0
   -2.1768   -0.0242    0.7641 H   0  0  0  0  0  0  0  0  0  0  0  0
   -2.4338    1.6610    0.3653 H   0  0  0  0  0  0  0  0  0  0  0  0
   -1.6835    2.3278    2.6985 H   0  0  0  0  0  0  0  0  0  0  0  0
   -0.1789    3.2239   -0.1557 H   0  0  0  0  0  0  0  0  0  0  0  0
    2.1643    2.5499   -0.7016 H   0  0  0  0  0  0  0  0  0  0  0  0
   -0.3558   -1.7691    1.2795 H   0  0  0  0  0  0  0  0  0  0  0  0
    1.6927   -3.1263    1.0079 H   0  0  0  0  0  0  0  0  0  0  0  0
    3.7486   -2.1417    0.0947 H   0  0  0  0  0  0  0  0  0  0  0  0
   -1.2931    0.6463    4.2713 H   0  0  0  0  0  0  0  0  0  0  0  0
   -0.2369    0.4490    3.0459 H   0  0  0  0  0  0  0  0  0  0  0  0
   -5.2221    1.8405    2.4430 H   0  0  0  0  0  0  0  0  0  0  0  0
  1 13  1  0  0  0  0
  2 15  1  0  0  0  0
  2 27  1  0  0  0  0
  3 15  2  0  0  0  0
  4 10  1  0  0  0  0
  4 11  1  0  0  0  0
  4 21  1  0  0  0  0
  5  9  1  0  0  0  0
  5 25  1  0  0  0  0
  5 26  1  0  0  0  0
  6  7  1  0  0  0  0
  6  8  1  0  0  0  0
  6 11  2  0  0  0  0
  7  9  1  0  0  0  0
  7 17  1  0  0  0  0
  7 18  1  0  0  0  0
  8 10  2  0  0  0  0
  8 12  1  0  0  0  0
  9 15  1  0  0  0  0
  9 19  1  1  0  0  0
 10 13  1  0  0  0  0
 11 20  1  0  0  0  0
 12 14  2  0  0  0  0
 12 22  1  0  0  0  0
 13 16  2  0  0  0  0
 14 16  1  0  0  0  0
 14 23  1  0  0  0  0
 16 24  1  0  0  0  0
M  END
>  <PUBCHEM_COMPOUND_CID>
3081936

>  <PUBCHEM_CONFORMER_RMSD>
0.6

>  <PUBCHEM_CONFORMER_DIVERSEORDER>
1
16
18
12
6
14
13
15
5
9
11
7
3
17
8
4
2
10

>  <PUBCHEM_MMFF94_PARTIAL_CHARGES>
23
1 -0.18
10 -0.15
11 -0.3
12 -0.15
13 0.18
14 -0.15
15 0.66
16 -0.15
2 -0.65
20 0.15
21 0.27
22 0.15
23 0.15
24 0.15
25 0.36
26 0.36
27 0.5
3 -0.57
4 0.03
5 -0.99
6 -0.18
7 0.18
9 0.33

>  <PUBCHEM_EFFECTIVE_ROTOR_COUNT>
3

>  <PUBCHEM_PHARMACOPHORE_FEATURES>
9
1 2 acceptor
1 3 acceptor
1 4 cation
1 4 donor
1 5 cation
1 5 donor
3 2 3 15 anion
5 4 6 8 10 11 rings
6 8 10 12 13 14 16 rings

>  <PUBCHEM_HEAVY_ATOM_COUNT>
16

>  <PUBCHEM_ATOM_DEF_STEREO_COUNT>
1

>  <PUBCHEM_ATOM_UDEF_STEREO_COUNT>
0

>  <PUBCHEM_BOND_DEF_STEREO_COUNT>
0

>  <PUBCHEM_BOND_UDEF_STEREO_COUNT>
0

>  <PUBCHEM_ISOTOPIC_ATOM_COUNT>
0

>  <PUBCHEM_COMPONENT_COUNT>
1

>  <PUBCHEM_CACTVS_TAUTO_COUNT>
1

>  <PUBCHEM_CONFORMER_ID>
002F06D000000001

>  <PUBCHEM_MMFF94_ENERGY>
21.1611

>  <PUBCHEM_FEATURE_SELFOVERLAP>
45.82

>  <PUBCHEM_SHAPE_FINGERPRINT>
11578080 2 17984388924466825000
124424 183 13686303465081884254
12553582 1 18411975828143526921
13221675 6 18412827958434911515
14576447 43 18340199790755604503
15375462 189 18409729534599286731
15775835 57 18334861610268107463
16945 1 18336255791022852248
18186145 218 18334289916019968276
20645476 183 18412826893626043687
21634736 98 18269552921791453590
22112679 90 18270106921196644770
232386 152 17775000210831931829
23388829 49 18336548222809405032
23402539 116 18410292511045120260
23402655 69 18335140847572397877
23559900 14 18339087094691280412
25 1 18186239536893781042
2748010 2 16032970615544397136
2871803 45 18192422198631418127
3312278 4 18412265042788448683
34934 24 18412260597376354768
528886 8 18407760339401988560
63268167 104 18335700520365318296
7364860 26 18058442273837337785
90525 40 18128818534492151421

>  <PUBCHEM_SHAPE_MULTIPOLES>
309.44
6.2
2.12
1.03
0.36
0.09
-0.23
0.5
-1.22
-0.4
0.18
0.26
0.17
-0.87

>  <PUBCHEM_SHAPE_SELFOVERLAP>
658.378

>  <PUBCHEM_SHAPE_VOLUME>
173.9

>  <PUBCHEM_COORDINATE_TYPE>
2
5
10

$$$$
3081936
 OpenBabel12092211553D

 27 28  0  0  1  0  0  0  0  0999 V2000
    4.3479    0.5117   -0.8201 Cl  0  0  0  0  0  0  0  0  0  0  0  0
   -2.4950    0.9628   -2.4509 O   0  0  0  0  0  0  0  0  0  0  0  0
   -2.9447   -0.8698   -1.1936 O   0  0  0  0  0  0  0  0  0  0  0  0
    1.4891    1.9059   -0.3135 N   0  0  0  0  0  0  0  0  0  0  0  0
   -4.2128    1.1902    0.4373 N   0  0  0  0  0  0  0  0  0  0  0  0
   -0.4072    1.0903    0.5027 C   0  0  0  0  0  0  0  0  0  0  0  0
   -1.8055    0.9898    0.9672 C   0  0  0  0  0  0  0  0  0  0  0  0
    0.5575    0.0444    0.4891 C   0  0  0  0  0  0  0  0  0  0  0  0
   -2.8613    1.3162   -0.1145 C   0  0  1  0  0  0  0  0  0  0  0  0
    1.7382    0.5824   -0.0274 C   0  0  0  0  0  0  0  0  0  0  0  0
    0.1953    2.2221    0.0036 C   0  0  0  0  0  0  0  0  0  0  0  0
    0.5395   -1.3127    0.8678 C   0  0  0  0  0  0  0  0  0  0  0  0
    2.9065   -0.1717   -0.1847 C   0  0  0  0  0  0  0  0  0  0  0  0
    1.7006   -2.0794    0.7161 C   0  0  0  0  0  0  0  0  0  0  0  0
   -2.7703    0.3396   -1.2750 C   0  0  0  0  0  0  0  0  0  0  0  0
    2.8648   -1.5156    0.1977 C   0  0  0  0  0  0  0  0  0  0  0  0
   -1.9477    1.6682    1.8198 H   0  0  0  0  0  0  0  0  0  0  0  0
   -1.9824   -0.0209    1.3606 H   0  0  0  0  0  0  0  0  0  0  0  0
   -2.7310    2.3370   -0.4926 H   0  0  0  0  0  0  0  0  0  0  0  0
   -0.1789    3.2239   -0.1557 H   0  0  0  0  0  0  0  0  0  0  0  0
    2.1643    2.5499   -0.7016 H   0  0  0  0  0  0  0  0  0  0  0  0
   -0.3558   -1.7691    1.2795 H   0  0  0  0  0  0  0  0  0  0  0  0
    1.6927   -3.1263    1.0079 H   0  0  0  0  0  0  0  0  0  0  0  0
    3.7486   -2.1417    0.0947 H   0  0  0  0  0  0  0  0  0  0  0  0
   -4.8949    1.4909   -0.2583 H   0  0  0  0  0  0  0  0  0  0  0  0
   -4.3174    1.8239    1.2289 H   0  0  0  0  0  0  0  0  0  0  0  0
   -2.4444    0.3283   -3.1973 H   0  0  0  0  0  0  0  0  0  0  0  0
  1 13  1  0  0  0  0
  2 15  1  0  0  0  0
  2 27  1  0  0  0  0
  3 15  2  0  0  0  0
  4 10  1  0  0  0  0
  4 11  1  0  0  0  0
  4 21  1  0  0  0  0
  5  9  1  0  0  0  0
  5 25  1  0  0  0  0
  5 26  1  0  0  0  0
  6  7  1  0  0  0  0
  6  8  1  0  0  0  0
  6 11  2  0  0  0  0
  7  9  1  0  0  0  0
  7 17  1  0  0  0  0
  7 18  1  0  0  0  0
  8 10  2  0  0  0  0
  8 12  1  0  0  0  0
  9 15  1  0  0  0  0
  9 19  1  6  0  0  0
 10 13  1  0  0  0  0
 11 20  1  0  0  0  0
 12 14  2  0  0  0  0
 12 22  1  0  0  0  0
 13 16  2  0  0  0  0
 14 16  1  0  0  0  0
 14 23  1  0  0  0  0
 16 24  1  0  0  0  0
M  END
>  <PUBCHEM_COMPOUND_CID>
3081936

>  <PUBCHEM_CONFORMER_RMSD>
0.6

>  <PUBCHEM_CONFORMER_DIVERSEORDER>
1
16
18
12
6
14
13
15
5
9
11
7
3
17
8
4
2
10

>  <PUBCHEM_MMFF94_PARTIAL_CHARGES>
23
1 -0.18
10 -0.15
11 -0.3
12 -0.15
13 0.18
14 -0.15
15 0.66
16 -0.15
2 -0.65
20 0.15
21 0.27
22 0.15
23 0.15
24 0.15
25 0.36
26 0.36
27 0.5
3 -0.57
4 0.03
5 -0.99
6 -0.18
7 0.18
9 0.33

>  <PUBCHEM_EFFECTIVE_ROTOR_COUNT>
3

>  <PUBCHEM_PHARMACOPHORE_FEATURES>
9
1 2 acceptor
1 3 acceptor
1 4 cation
1 4 donor
1 5 cation
1 5 donor
3 2 3 15 anion
5 4 6 8 10 11 rings
6 8 10 12 13 14 16 rings

>  <PUBCHEM_HEAVY_ATOM_COUNT>
16

>  <PUBCHEM_ATOM_DEF_STEREO_COUNT>
1

>  <PUBCHEM_ATOM_UDEF_STEREO_COUNT>
0

>  <PUBCHEM_BOND_DEF_STEREO_COUNT>
0

>  <PUBCHEM_BOND_UDEF_STEREO_COUNT>
0

>  <PUBCHEM_ISOTOPIC_ATOM_COUNT>
0

>  <PUBCHEM_COMPONENT_COUNT>
1

>  <PUBCHEM_CACTVS_TAUTO_COUNT>
1

>  <PUBCHEM_CONFORMER_ID>
002F06D000000001

>  <PUBCHEM_MMFF94_ENERGY>
21.1611

>  <PUBCHEM_FEATURE_SELFOVERLAP>
45.82

>  <PUBCHEM_SHAPE_FINGERPRINT>
11578080 2 17984388924466825000
124424 183 13686303465081884254
12553582 1 18411975828143526921
13221675 6 18412827958434911515
14576447 43 18340199790755604503
15375462 189 18409729534599286731
15775835 57 18334861610268107463
16945 1 18336255791022852248
18186145 218 18334289916019968276
20645476 183 18412826893626043687
21634736 98 18269552921791453590
22112679 90 18270106921196644770
232386 152 17775000210831931829
23388829 49 18336548222809405032
23402539 116 18410292511045120260
23402655 69 18335140847572397877
23559900 14 18339087094691280412
25 1 18186239536893781042
2748010 2 16032970615544397136
2871803 45 18192422198631418127
3312278 4 18412265042788448683
34934 24 18412260597376354768
528886 8 18407760339401988560
63268167 104 18335700520365318296
7364860 26 18058442273837337785
90525 40 18128818534492151421

>  <PUBCHEM_SHAPE_MULTIPOLES>
309.44
6.2
2.12
1.03
0.36
0.09
-0.23
0.5
-1.22
-0.4
0.18
0.26
0.17
-0.87

>  <PUBCHEM_SHAPE_SELFOVERLAP>
658.378

>  <PUBCHEM_SHAPE_VOLUME>
173.9

>  <PUBCHEM_COORDINATE_TYPE>
2
5
10

$$$$
3081936
 OpenBabel12092211553D

 27 28  0  0  1  0  0  0  0  0999 V2000
    4.3479    0.5117   -0.8201 Cl  0  0  0  0  0  0  0  0  0  0  0  0
   -4.3659   -0.3333    1.4365 O   0  0  0  0  0  0  0  0  0  0  0  0
   -5.1687    1.2178   -0.0094 O   0  0  0  0  0  0  0  0  0  0  0  0
    1.4891    1.9059   -0.3135 N   0  0  0  0  0  0  0  0  0  0  0  0
   -2.8074    1.5744   -1.2170 N   0  0  0  0  0  0  0  0  0  0  0  0
   -0.4072    1.0903    0.5027 C   0  0  0  0  0  0  0  0  0  0  0  0
   -1.8055    0.9898    0.9672 C   0  0  0  0  0  0  0  0  0  0  0  0
    0.5575    0.0444    0.4891 C   0  0  0  0  0  0  0  0  0  0  0  0
   -2.8152    0.5885   -0.1331 C   0  0  1  0  0  0  0  0  0  0  0  0
    1.7382    0.5824   -0.0274 C   0  0  0  0  0  0  0  0  0  0  0  0
    0.1953    2.2221    0.0036 C   0  0  0  0  0  0  0  0  0  0  0  0
    0.5395   -1.3127    0.8678 C   0  0  0  0  0  0  0  0  0  0  0  0
    2.9065   -0.1717   -0.1847 C   0  0  0  0  0  0  0  0  0  0  0  0
    1.7006   -2.0794    0.7161 C   0  0  0  0  0  0  0  0  0  0  0  0
   -4.2317    0.5536    0.4157 C   0  0  0  0  0  0  0  0  0  0  0  0
    2.8648   -1.5156    0.1977 C   0  0  0  0  0  0  0  0  0  0  0  0
   -2.1096    1.9553    1.3946 H   0  0  0  0  0  0  0  0  0  0  0  0
   -1.8588    0.2696    1.7955 H   0  0  0  0  0  0  0  0  0  0  0  0
   -2.5675   -0.3942   -0.5515 H   0  0  0  0  0  0  0  0  0  0  0  0
   -0.1789    3.2239   -0.1557 H   0  0  0  0  0  0  0  0  0  0  0  0
    2.1643    2.5499   -0.7016 H   0  0  0  0  0  0  0  0  0  0  0  0
   -0.3558   -1.7691    1.2795 H   0  0  0  0  0  0  0  0  0  0  0  0
    1.6927   -3.1263    1.0079 H   0  0  0  0  0  0  0  0  0  0  0  0
    3.7486   -2.1417    0.0947 H   0  0  0  0  0  0  0  0  0  0  0  0
   -3.4113    1.2547   -1.9736 H   0  0  0  0  0  0  0  0  0  0  0  0
   -1.8695    1.6388   -1.6113 H   0  0  0  0  0  0  0  0  0  0  0  0
   -5.2838   -0.3565    1.7818 H   0  0  0  0  0  0  0  0  0  0  0  0
  1 13  1  0  0  0  0
  2 15  1  0  0  0  0
  2 27  1  0  0  0  0
  3 15  2  0  0  0  0
  4 10  1  0  0  0  0
  4 11  1  0  0  0  0
  4 21  1  0  0  0  0
  5  9  1  0  0  0  0
  5 25  1  0  0  0  0
  5 26  1  0  0  0  0
  6  7  1  0  0  0  0
  6  8  1  0  0  0  0
  6 11  2  0  0  0  0
  7  9  1  0  0  0  0
  7 17  1  0  0  0  0
  7 18  1  0  0  0  0
  8 10  2  0  0  0  0
  8 12  1  0  0  0  0
  9 15  1  0  0  0  0
  9 19  1  6  0  0  0
 10 13  1  0  0  0  0
 11 20  1  0  0  0  0
 12 14  2  0  0  0  0
 12 22  1  0  0  0  0
 13 16  2  0  0  0  0
 14 16  1  0  0  0  0
 14 23  1  0  0  0  0
 16 24  1  0  0  0  0
M  END
>  <PUBCHEM_COMPOUND_CID>
3081936

>  <PUBCHEM_CONFORMER_RMSD>
0.6

>  <PUBCHEM_CONFORMER_DIVERSEORDER>
1
16
18
12
6
14
13
15
5
9
11
7
3
17
8
4
2
10

>  <PUBCHEM_MMFF94_PARTIAL_CHARGES>
23
1 -0.18
10 -0.15
11 -0.3
12 -0.15
13 0.18
14 -0.15
15 0.66
16 -0.15
2 -0.65
20 0.15
21 0.27
22 0.15
23 0.15
24 0.15
25 0.36
26 0.36
27 0.5
3 -0.57
4 0.03
5 -0.99
6 -0.18
7 0.18
9 0.33

>  <PUBCHEM_EFFECTIVE_ROTOR_COUNT>
3

>  <PUBCHEM_PHARMACOPHORE_FEATURES>
9
1 2 acceptor
1 3 acceptor
1 4 cation
1 4 donor
1 5 cation
1 5 donor
3 2 3 15 anion
5 4 6 8 10 11 rings
6 8 10 12 13 14 16 rings

>  <PUBCHEM_HEAVY_ATOM_COUNT>
16

>  <PUBCHEM_ATOM_DEF_STEREO_COUNT>
1

>  <PUBCHEM_ATOM_UDEF_STEREO_COUNT>
0

>  <PUBCHEM_BOND_DEF_STEREO_COUNT>
0

>  <PUBCHEM_BOND_UDEF_STEREO_COUNT>
0

>  <PUBCHEM_ISOTOPIC_ATOM_COUNT>
0

>  <PUBCHEM_COMPONENT_COUNT>
1

>  <PUBCHEM_CACTVS_TAUTO_COUNT>
1

>  <PUBCHEM_CONFORMER_ID>
002F06D000000001

>  <PUBCHEM_MMFF94_ENERGY>
21.1611

>  <PUBCHEM_FEATURE_SELFOVERLAP>
45.82

>  <PUBCHEM_SHAPE_FINGERPRINT>
11578080 2 17984388924466825000
124424 183 13686303465081884254
12553582 1 18411975828143526921
13221675 6 18412827958434911515
14576447 43 18340199790755604503
15375462 189 18409729534599286731
15775835 57 18334861610268107463
16945 1 18336255791022852248
18186145 218 18334289916019968276
20645476 183 18412826893626043687
21634736 98 18269552921791453590
22112679 90 18270106921196644770
232386 152 17775000210831931829
23388829 49 18336548222809405032
23402539 116 18410292511045120260
23402655 69 18335140847572397877
23559900 14 18339087094691280412
25 1 18186239536893781042
2748010 2 16032970615544397136
2871803 45 18192422198631418127
3312278 4 18412265042788448683
34934 24 18412260597376354768
528886 8 18407760339401988560
63268167 104 18335700520365318296
7364860 26 18058442273837337785
90525 40 18128818534492151421

>  <PUBCHEM_SHAPE_MULTIPOLES>
309.44
6.2
2.12
1.03
0.36
0.09
-0.23
0.5
-1.22
-0.4
0.18
0.26
0.17
-0.87

>  <PUBCHEM_SHAPE_SELFOVERLAP>
658.378

>  <PUBCHEM_SHAPE_VOLUME>
173.9

>  <PUBCHEM_COORDINATE_TYPE>
2
5
10

$$$$
3081936
 OpenBabel12092211553D

 27 28  0  0  1  0  0  0  0  0999 V2000
    4.3479    0.5117   -0.8201 Cl  0  0  0  0  0  0  0  0  0  0  0  0
   -1.8862    2.8334    3.2372 O   0  0  0  0  0  0  0  0  0  0  0  0
   -0.3848    1.3876    4.1298 O   0  0  0  0  0  0  0  0  0  0  0  0
    1.4891    1.9059   -0.3135 N   0  0  0  0  0  0  0  0  0  0  0  0
   -3.3728    0.5038    2.8174 N   0  0  0  0  0  0  0  0  0  0  0  0
   -0.4072    1.0903    0.5027 C   0  0  0  0  0  0  0  0  0  0  0  0
   -1.8055    0.9898    0.9672 C   0  0  0  0  0  0  0  0  0  0  0  0
    0.5575    0.0444    0.4891 C   0  0  0  0  0  0  0  0  0  0  0  0
   -1.9564    0.5767    2.4497 C   0  0  1  0  0  0  0  0  0  0  0  0
    1.7382    0.5824   -0.0274 C   0  0  0  0  0  0  0  0  0  0  0  0
    0.1953    2.2221    0.0036 C   0  0  0  0  0  0  0  0  0  0  0  0
    0.5395   -1.3127    0.8678 C   0  0  0  0  0  0  0  0  0  0  0  0
    2.9065   -0.1717   -0.1847 C   0  0  0  0  0  0  0  0  0  0  0  0
    1.7006   -2.0794    0.7161 C   0  0  0  0  0  0  0  0  0  0  0  0
   -1.3188    1.6056    3.3682 C   0  0  0  0  0  0  0  0  0  0  0  0
    2.8648   -1.5156    0.1977 C   0  0  0  0  0  0  0  0  0  0  0  0
   -2.3387    0.2629    0.3389 H   0  0  0  0  0  0  0  0  0  0  0  0
   -2.3102    1.9515    0.8003 H   0  0  0  0  0  0  0  0  0  0  0  0
   -1.4963   -0.4017    2.6317 H   0  0  0  0  0  0  0  0  0  0  0  0
   -0.1789    3.2239   -0.1557 H   0  0  0  0  0  0  0  0  0  0  0  0
    2.1643    2.5499   -0.7016 H   0  0  0  0  0  0  0  0  0  0  0  0
   -0.3558   -1.7691    1.2795 H   0  0  0  0  0  0  0  0  0  0  0  0
    1.6927   -3.1263    1.0079 H   0  0  0  0  0  0  0  0  0  0  0  0
    3.7486   -2.1417    0.0947 H   0  0  0  0  0  0  0  0  0  0  0  0
   -3.4606    0.1477    3.7688 H   0  0  0  0  0  0  0  0  0  0  0  0
   -3.8455   -0.1715    2.2176 H   0  0  0  0  0  0  0  0  0  0  0  0
   -1.4658    3.4948    3.8274 H   0  0  0  0  0  0  0  0  0  0  0  0
  1 13  1  0  0  0  0
  2 15  1  0  0  0  0
  2 27  1  0  0  0  0
  3 15  2  0  0  0  0
  4 10  1  0  0  0  0
  4 11  1  0  0  0  0
  4 21  1  0  0  0  0
  5  9  1  0  0  0  0
  5 25  1  0  0  0  0
  5 26  1  0  0  0  0
  6  7  1  0  0  0  0
  6  8  1  0  0  0  0
  6 11  2  0  0  0  0
  7  9  1  0  0  0  0
  7 17  1  0  0  0  0
  7 18  1  0  0  0  0
  8 10  2  0  0  0  0
  8 12  1  0  0  0  0
  9 15  1  0  0  0  0
  9 19  1  1  0  0  0
 10 13  1  0  0  0  0
 11 20  1  0  0  0  0
 12 14  2  0  0  0  0
 12 22  1  0  0  0  0
 13 16  2  0  0  0  0
 14 16  1  0  0  0  0
 14 23  1  0  0  0  0
 16 24  1  0  0  0  0
M  END
>  <PUBCHEM_COMPOUND_CID>
3081936

>  <PUBCHEM_CONFORMER_RMSD>
0.6

>  <PUBCHEM_CONFORMER_DIVERSEORDER>
1
16
18
12
6
14
13
15
5
9
11
7
3
17
8
4
2
10

>  <PUBCHEM_MMFF94_PARTIAL_CHARGES>
23
1 -0.18
10 -0.15
11 -0.3
12 -0.15
13 0.18
14 -0.15
15 0.66
16 -0.15
2 -0.65
20 0.15
21 0.27
22 0.15
23 0.15
24 0.15
25 0.36
26 0.36
27 0.5
3 -0.57
4 0.03
5 -0.99
6 -0.18
7 0.18
9 0.33

>  <PUBCHEM_EFFECTIVE_ROTOR_COUNT>
3

>  <PUBCHEM_PHARMACOPHORE_FEATURES>
9
1 2 acceptor
1 3 acceptor
1 4 cation
1 4 donor
1 5 cation
1 5 donor
3 2 3 15 anion
5 4 6 8 10 11 rings
6 8 10 12 13 14 16 rings

>  <PUBCHEM_HEAVY_ATOM_COUNT>
16

>  <PUBCHEM_ATOM_DEF_STEREO_COUNT>
1

>  <PUBCHEM_ATOM_UDEF_STEREO_COUNT>
0

>  <PUBCHEM_BOND_DEF_STEREO_COUNT>
0

>  <PUBCHEM_BOND_UDEF_STEREO_COUNT>
0

>  <PUBCHEM_ISOTOPIC_ATOM_COUNT>
0

>  <PUBCHEM_COMPONENT_COUNT>
1

>  <PUBCHEM_CACTVS_TAUTO_COUNT>
1

>  <PUBCHEM_CONFORMER_ID>
002F06D000000001

>  <PUBCHEM_MMFF94_ENERGY>
21.1611

>  <PUBCHEM_FEATURE_SELFOVERLAP>
45.82

>  <PUBCHEM_SHAPE_FINGERPRINT>
11578080 2 17984388924466825000
124424 183 13686303465081884254
12553582 1 18411975828143526921
13221675 6 18412827958434911515
14576447 43 18340199790755604503
15375462 189 18409729534599286731
15775835 57 18334861610268107463
16945 1 18336255791022852248
18186145 218 18334289916019968276
20645476 183 18412826893626043687
21634736 98 18269552921791453590
22112679 90 18270106921196644770
232386 152 17775000210831931829
23388829 49 18336548222809405032
23402539 116 18410292511045120260
23402655 69 18335140847572397877
23559900 14 18339087094691280412
25 1 18186239536893781042
2748010 2 16032970615544397136
2871803 45 18192422198631418127
3312278 4 18412265042788448683
34934 24 18412260597376354768
528886 8 18407760339401988560
63268167 104 18335700520365318296
7364860 26 18058442273837337785
90525 40 18128818534492151421

>  <PUBCHEM_SHAPE_MULTIPOLES>
309.44
6.2
2.12
1.03
0.36
0.09
-0.23
0.5
-1.22
-0.4
0.18
0.26
0.17
-0.87

>  <PUBCHEM_SHAPE_SELFOVERLAP>
658.378

>  <PUBCHEM_SHAPE_VOLUME>
173.9

>  <PUBCHEM_COORDINATE_TYPE>
2
5
10

$$$$
3081936
 OpenBabel12092211553D

 27 28  0  0  1  0  0  0  0  0999 V2000
    4.3479    0.5117   -0.8201 Cl  0  0  0  0  0  0  0  0  0  0  0  0
   -4.6265    1.7615    0.8971 O   0  0  0  0  0  0  0  0  0  0  0  0
   -4.9479   -0.4391    0.4550 O   0  0  0  0  0  0  0  0  0  0  0  0
    1.4891    1.9059   -0.3135 N   0  0  0  0  0  0  0  0  0  0  0  0
   -2.8074    1.5744   -1.2170 N   0  0  0  0  0  0  0  0  0  0  0  0
   -0.4072    1.0903    0.5027 C   0  0  0  0  0  0  0  0  0  0  0  0
   -1.8055    0.9898    0.9672 C   0  0  0  0  0  0  0  0  0  0  0  0
    0.5575    0.0444    0.4891 C   0  0  0  0  0  0  0  0  0  0  0  0
   -2.8152    0.5885   -0.1331 C   0  0  1  0  0  0  0  0  0  0  0  0
    1.7382    0.5824   -0.0274 C   0  0  0  0  0  0  0  0  0  0  0  0
    0.1953    2.2221    0.0036 C   0  0  0  0  0  0  0  0  0  0  0  0
    0.5395   -1.3127    0.8678 C   0  0  0  0  0  0  0  0  0  0  0  0
    2.9065   -0.1717   -0.1847 C   0  0  0  0  0  0  0  0  0  0  0  0
    1.7006   -2.0794    0.7161 C   0  0  0  0  0  0  0  0  0  0  0  0
   -4.2317    0.5536    0.4157 C   0  0  0  0  0  0  0  0  0  0  0  0
    2.8648   -1.5156    0.1977 C   0  0  0  0  0  0  0  0  0  0  0  0
   -2.1096    1.9553    1.3946 H   0  0  0  0  0  0  0  0  0  0  0  0
   -1.8588    0.2696    1.7955 H   0  0  0  0  0  0  0  0  0  0  0  0
   -2.5675   -0.3942   -0.5515 H   0  0  0  0  0  0  0  0  0  0  0  0
   -0.1789    3.2239   -0.1557 H   0  0  0  0  0  0  0  0  0  0  0  0
    2.1643    2.5499   -0.7016 H   0  0  0  0  0  0  0  0  0  0  0  0
   -0.3558   -1.7691    1.2795 H   0  0  0  0  0  0  0  0  0  0  0  0
    1.6927   -3.1263    1.0079 H   0  0  0  0  0  0  0  0  0  0  0  0
    3.7486   -2.1417    0.0947 H   0  0  0  0  0  0  0  0  0  0  0  0
   -3.4113    1.2547   -1.9736 H   0  0  0  0  0  0  0  0  0  0  0  0
   -1.8695    1.6388   -1.6113 H   0  0  0  0  0  0  0  0  0  0  0  0
   -5.5389    1.7310    1.2563 H   0  0  0  0  0  0  0  0  0  0  0  0
  1 13  1  0  0  0  0
  2 15  1  0  0  0  0
  2 27  1  0  0  0  0
  3 15  2  0  0  0  0
  4 10  1  0  0  0  0
  4 11  1  0  0  0  0
  4 21  1  0  0  0  0
  5  9  1  0  0  0  0
  5 25  1  0  0  0  0
  5 26  1  0  0  0  0
  6  7  1  0  0  0  0
  6  8  1  0  0  0  0
  6 11  2  0  0  0  0
  7  9  1  0  0  0  0
  7 17  1  0  0  0  0
  7 18  1  0  0  0  0
  8 10  2  0  0  0  0
  8 12  1  0  0  0  0
  9 15  1  0  0  0  0
  9 19  1  6  0  0  0
 10 13  1  0  0  0  0
 11 20  1  0  0  0  0
 12 14  2  0  0  0  0
 12 22  1  0  0  0  0
 13 16  2  0  0  0  0
 14 16  1  0  0  0  0
 14 23  1  0  0  0  0
 16 24  1  0  0  0  0
M  END
>  <PUBCHEM_COMPOUND_CID>
3081936

>  <PUBCHEM_CONFORMER_RMSD>
0.6

>  <PUBCHEM_CONFORMER_DIVERSEORDER>
1
16
18
12
6
14
13
15
5
9
11
7
3
17
8
4
2
10

>  <PUBCHEM_MMFF94_PARTIAL_CHARGES>
23
1 -0.18
10 -0.15
11 -0.3
12 -0.15
13 0.18
14 -0.15
15 0.66
16 -0.15
2 -0.65
20 0.15
21 0.27
22 0.15
23 0.15
24 0.15
25 0.36
26 0.36
27 0.5
3 -0.57
4 0.03
5 -0.99
6 -0.18
7 0.18
9 0.33

>  <PUBCHEM_EFFECTIVE_ROTOR_COUNT>
3

>  <PUBCHEM_PHARMACOPHORE_FEATURES>
9
1 2 acceptor
1 3 acceptor
1 4 cation
1 4 donor
1 5 cation
1 5 donor
3 2 3 15 anion
5 4 6 8 10 11 rings
6 8 10 12 13 14 16 rings

>  <PUBCHEM_HEAVY_ATOM_COUNT>
16

>  <PUBCHEM_ATOM_DEF_STEREO_COUNT>
1

>  <PUBCHEM_ATOM_UDEF_STEREO_COUNT>
0

>  <PUBCHEM_BOND_DEF_STEREO_COUNT>
0

>  <PUBCHEM_BOND_UDEF_STEREO_COUNT>
0

>  <PUBCHEM_ISOTOPIC_ATOM_COUNT>
0

>  <PUBCHEM_COMPONENT_COUNT>
1

>  <PUBCHEM_CACTVS_TAUTO_COUNT>
1

>  <PUBCHEM_CONFORMER_ID>
002F06D000000001

>  <PUBCHEM_MMFF94_ENERGY>
21.1611

>  <PUBCHEM_FEATURE_SELFOVERLAP>
45.82

>  <PUBCHEM_SHAPE_FINGERPRINT>
11578080 2 17984388924466825000
124424 183 13686303465081884254
12553582 1 18411975828143526921
13221675 6 18412827958434911515
14576447 43 18340199790755604503
15375462 189 18409729534599286731
15775835 57 18334861610268107463
16945 1 18336255791022852248
18186145 218 18334289916019968276
20645476 183 18412826893626043687
21634736 98 18269552921791453590
22112679 90 18270106921196644770
232386 152 17775000210831931829
23388829 49 18336548222809405032
23402539 116 18410292511045120260
23402655 69 18335140847572397877
23559900 14 18339087094691280412
25 1 18186239536893781042
2748010 2 16032970615544397136
2871803 45 18192422198631418127
3312278 4 18412265042788448683
34934 24 18412260597376354768
528886 8 18407760339401988560
63268167 104 18335700520365318296
7364860 26 18058442273837337785
90525 40 18128818534492151421

>  <PUBCHEM_SHAPE_MULTIPOLES>
309.44
6.2
2.12
1.03
0.36
0.09
-0.23
0.5
-1.22
-0.4
0.18
0.26
0.17
-0.87

>  <PUBCHEM_SHAPE_SELFOVERLAP>
658.378

>  <PUBCHEM_SHAPE_VOLUME>
173.9

>  <PUBCHEM_COORDINATE_TYPE>
2
5
10

$$$$
3081936
 OpenBabel12092211553D

 27 28  0  0  1  0  0  0  0  0999 V2000
    4.3479    0.5117   -0.8201 Cl  0  0  0  0  0  0  0  0  0  0  0  0
   -3.6830    1.3605    3.8876 O   0  0  0  0  0  0  0  0  0  0  0  0
   -4.5808    1.8685    1.8685 O   0  0  0  0  0  0  0  0  0  0  0  0
    1.4891    1.9059   -0.3135 N   0  0  0  0  0  0  0  0  0  0  0  0
   -1.3121    1.6469    3.2998 N   0  0  0  0  0  0  0  0  0  0  0  0
   -0.4072    1.0903    0.5027 C   0  0  0  0  0  0  0  0  0  0  0  0
   -1.8055    0.9898    0.9672 C   0  0  0  0  0  0  0  0  0  0  0  0
    0.5575    0.0444    0.4891 C   0  0  0  0  0  0  0  0  0  0  0  0
   -2.1575    1.9361    2.1385 C   0  0  1  0  0  0  0  0  0  0  0  0
    1.7382    0.5824   -0.0274 C   0  0  0  0  0  0  0  0  0  0  0  0
    0.1953    2.2221    0.0036 C   0  0  0  0  0  0  0  0  0  0  0  0
    0.5395   -1.3127    0.8678 C   0  0  0  0  0  0  0  0  0  0  0  0
    2.9065   -0.1717   -0.1847 C   0  0  0  0  0  0  0  0  0  0  0  0
    1.7006   -2.0794    0.7161 C   0  0  0  0  0  0  0  0  0  0  0  0
   -3.5962    1.7368    2.5847 C   0  0  0  0  0  0  0  0  0  0  0  0
    2.8648   -1.5156    0.1977 C   0  0  0  0  0  0  0  0  0  0  0  0
   -2.0059   -0.0462    1.2738 H   0  0  0  0  0  0  0  0  0  0  0  0
   -2.4804    1.1841    0.1220 H   0  0  0  0  0  0  0  0  0  0  0  0
   -2.0121    2.9842    1.8516 H   0  0  0  0  0  0  0  0  0  0  0  0
   -0.1789    3.2239   -0.1557 H   0  0  0  0  0  0  0  0  0  0  0  0
    2.1643    2.5499   -0.7016 H   0  0  0  0  0  0  0  0  0  0  0  0
   -0.3558   -1.7691    1.2795 H   0  0  0  0  0  0  0  0  0  0  0  0
    1.6927   -3.1263    1.0079 H   0  0  0  0  0  0  0  0  0  0  0  0
    3.7486   -2.1417    0.0947 H   0  0  0  0  0  0  0  0  0  0  0  0
   -1.4934    2.3318    4.0330 H   0  0  0  0  0  0  0  0  0  0  0  0
   -0.3320    1.7594    3.0433 H   0  0  0  0  0  0  0  0  0  0  0  0
   -4.6135    1.2266    4.1679 H   0  0  0  0  0  0  0  0  0  0  0  0
  1 13  1  0  0  0  0
  2 15  1  0  0  0  0
  2 27  1  0  0  0  0
  3 15  2  0  0  0  0
  4 10  1  0  0  0  0
  4 11  1  0  0  0  0
  4 21  1  0  0  0  0
  5  9  1  0  0  0  0
  5 25  1  0  0  0  0
  5 26  1  0  0  0  0
  6  7  1  0  0  0  0
  6  8  1  0  0  0  0
  6 11  2  0  0  0  0
  7  9  1  0  0  0  0
  7 17  1  0  0  0  0
  7 18  1  0  0  0  0
  8 10  2  0  0  0  0
  8 12  1  0  0  0  0
  9 15  1  0  0  0  0
  9 19  1  6  0  0  0
 10 13  1  0  0  0  0
 11 20  1  0  0  0  0
 12 14  2  0  0  0  0
 12 22  1  0  0  0  0
 13 16  2  0  0  0  0
 14 16  1  0  0  0  0
 14 23  1  0  0  0  0
 16 24  1  0  0  0  0
M  END
>  <PUBCHEM_COMPOUND_CID>
3081936

>  <PUBCHEM_CONFORMER_RMSD>
0.6

>  <PUBCHEM_CONFORMER_DIVERSEORDER>
1
16
18
12
6
14
13
15
5
9
11
7
3
17
8
4
2
10

>  <PUBCHEM_MMFF94_PARTIAL_CHARGES>
23
1 -0.18
10 -0.15
11 -0.3
12 -0.15
13 0.18
14 -0.15
15 0.66
16 -0.15
2 -0.65
20 0.15
21 0.27
22 0.15
23 0.15
24 0.15
25 0.36
26 0.36
27 0.5
3 -0.57
4 0.03
5 -0.99
6 -0.18
7 0.18
9 0.33

>  <PUBCHEM_EFFECTIVE_ROTOR_COUNT>
3

>  <PUBCHEM_PHARMACOPHORE_FEATURES>
9
1 2 acceptor
1 3 acceptor
1 4 cation
1 4 donor
1 5 cation
1 5 donor
3 2 3 15 anion
5 4 6 8 10 11 rings
6 8 10 12 13 14 16 rings

>  <PUBCHEM_HEAVY_ATOM_COUNT>
16

>  <PUBCHEM_ATOM_DEF_STEREO_COUNT>
1

>  <PUBCHEM_ATOM_UDEF_STEREO_COUNT>
0

>  <PUBCHEM_BOND_DEF_STEREO_COUNT>
0

>  <PUBCHEM_BOND_UDEF_STEREO_COUNT>
0

>  <PUBCHEM_ISOTOPIC_ATOM_COUNT>
0

>  <PUBCHEM_COMPONENT_COUNT>
1

>  <PUBCHEM_CACTVS_TAUTO_COUNT>
1

>  <PUBCHEM_CONFORMER_ID>
002F06D000000001

>  <PUBCHEM_MMFF94_ENERGY>
21.1611

>  <PUBCHEM_FEATURE_SELFOVERLAP>
45.82

>  <PUBCHEM_SHAPE_FINGERPRINT>
11578080 2 17984388924466825000
124424 183 13686303465081884254
12553582 1 18411975828143526921
13221675 6 18412827958434911515
14576447 43 18340199790755604503
15375462 189 18409729534599286731
15775835 57 18334861610268107463
16945 1 18336255791022852248
18186145 218 18334289916019968276
20645476 183 18412826893626043687
21634736 98 18269552921791453590
22112679 90 18270106921196644770
232386 152 17775000210831931829
23388829 49 18336548222809405032
23402539 116 18410292511045120260
23402655 69 18335140847572397877
23559900 14 18339087094691280412
25 1 18186239536893781042
2748010 2 16032970615544397136
2871803 45 18192422198631418127
3312278 4 18412265042788448683
34934 24 18412260597376354768
528886 8 18407760339401988560
63268167 104 18335700520365318296
7364860 26 18058442273837337785
90525 40 18128818534492151421

>  <PUBCHEM_SHAPE_MULTIPOLES>
309.44
6.2
2.12
1.03
0.36
0.09
-0.23
0.5
-1.22
-0.4
0.18
0.26
0.17
-0.87

>  <PUBCHEM_SHAPE_SELFOVERLAP>
658.378

>  <PUBCHEM_SHAPE_VOLUME>
173.9

>  <PUBCHEM_COORDINATE_TYPE>
2
5
10

$$$$
3081936
 OpenBabel12092211553D

 27 28  0  0  1  0  0  0  0  0999 V2000
    4.3479    0.5117   -0.8201 Cl  0  0  0  0  0  0  0  0  0  0  0  0
   -4.4585    1.1382    1.3454 O   0  0  0  0  0  0  0  0  0  0  0  0
   -4.3292    2.7356    2.9494 O   0  0  0  0  0  0  0  0  0  0  0  0
    1.4891    1.9059   -0.3135 N   0  0  0  0  0  0  0  0  0  0  0  0
   -1.5891    2.7387    2.7024 N   0  0  0  0  0  0  0  0  0  0  0  0
   -0.4072    1.0903    0.5027 C   0  0  0  0  0  0  0  0  0  0  0  0
   -1.8055    0.9898    0.9672 C   0  0  0  0  0  0  0  0  0  0  0  0
    0.5575    0.0444    0.4891 C   0  0  0  0  0  0  0  0  0  0  0  0
   -2.3798    2.3026    1.5485 C   0  0  1  0  0  0  0  0  0  0  0  0
    1.7382    0.5824   -0.0274 C   0  0  0  0  0  0  0  0  0  0  0  0
    0.1953    2.2221    0.0036 C   0  0  0  0  0  0  0  0  0  0  0  0
    0.5395   -1.3127    0.8678 C   0  0  0  0  0  0  0  0  0  0  0  0
    2.9065   -0.1717   -0.1847 C   0  0  0  0  0  0  0  0  0  0  0  0
    1.7006   -2.0794    0.7161 C   0  0  0  0  0  0  0  0  0  0  0  0
   -3.8020    2.1012    2.0442 C   0  0  0  0  0  0  0  0  0  0  0  0
    2.8648   -1.5156    0.1977 C   0  0  0  0  0  0  0  0  0  0  0  0
   -1.8718    0.2030    1.7313 H   0  0  0  0  0  0  0  0  0  0  0  0
   -2.4374    0.6485    0.1355 H   0  0  0  0  0  0  0  0  0  0  0  0
   -2.3710    3.1001    0.7961 H   0  0  0  0  0  0  0  0  0  0  0  0
   -0.1789    3.2239   -0.1557 H   0  0  0  0  0  0  0  0  0  0  0  0
    2.1643    2.5499   -0.7016 H   0  0  0  0  0  0  0  0  0  0  0  0
   -0.3558   -1.7691    1.2795 H   0  0  0  0  0  0  0  0  0  0  0  0
    1.6927   -3.1263    1.0079 H   0  0  0  0  0  0  0  0  0  0  0  0
    3.7486   -2.1417    0.0947 H   0  0  0  0  0  0  0  0  0  0  0  0
   -1.9238    3.6472    3.0219 H   0  0  0  0  0  0  0  0  0  0  0  0
   -0.6203    2.8781    2.4175 H   0  0  0  0  0  0  0  0  0  0  0  0
   -5.3780    1.0177    1.6652 H   0  0  0  0  0  0  0  0  0  0  0  0
  1 13  1  0  0  0  0
  2 15  1  0  0  0  0
  2 27  1  0  0  0  0
  3 15  2  0  0  0  0
  4 10  1  0  0  0  0
  4 11  1  0  0  0  0
  4 21  1  0  0  0  0
  5  9  1  0  0  0  0
  5 25  1  0  0  0  0
  5 26  1  0  0  0  0
  6  7  1  0  0  0  0
  6  8  1  0  0  0  0
  6 11  2  0  0  0  0
  7  9  1  0  0  0  0
  7 17  1  0  0  0  0
  7 18  1  0  0  0  0
  8 10  2  0  0  0  0
  8 12  1  0  0  0  0
  9 15  1  0  0  0  0
  9 19  1  6  0  0  0
 10 13  1  0  0  0  0
 11 20  1  0  0  0  0
 12 14  2  0  0  0  0
 12 22  1  0  0  0  0
 13 16  2  0  0  0  0
 14 16  1  0  0  0  0
 14 23  1  0  0  0  0
 16 24  1  0  0  0  0
M  END
>  <PUBCHEM_COMPOUND_CID>
3081936

>  <PUBCHEM_CONFORMER_RMSD>
0.6

>  <PUBCHEM_CONFORMER_DIVERSEORDER>
1
16
18
12
6
14
13
15
5
9
11
7
3
17
8
4
2
10

>  <PUBCHEM_MMFF94_PARTIAL_CHARGES>
23
1 -0.18
10 -0.15
11 -0.3
12 -0.15
13 0.18
14 -0.15
15 0.66
16 -0.15
2 -0.65
20 0.15
21 0.27
22 0.15
23 0.15
24 0.15
25 0.36
26 0.36
27 0.5
3 -0.57
4 0.03
5 -0.99
6 -0.18
7 0.18
9 0.33

>  <PUBCHEM_EFFECTIVE_ROTOR_COUNT>
3

>  <PUBCHEM_PHARMACOPHORE_FEATURES>
9
1 2 acceptor
1 3 acceptor
1 4 cation
1 4 donor
1 5 cation
1 5 donor
3 2 3 15 anion
5 4 6 8 10 11 rings
6 8 10 12 13 14 16 rings

>  <PUBCHEM_HEAVY_ATOM_COUNT>
16

>  <PUBCHEM_ATOM_DEF_STEREO_COUNT>
1

>  <PUBCHEM_ATOM_UDEF_STEREO_COUNT>
0

>  <PUBCHEM_BOND_DEF_STEREO_COUNT>
0

>  <PUBCHEM_BOND_UDEF_STEREO_COUNT>
0

>  <PUBCHEM_ISOTOPIC_ATOM_COUNT>
0

>  <PUBCHEM_COMPONENT_COUNT>
1

>  <PUBCHEM_CACTVS_TAUTO_COUNT>
1

>  <PUBCHEM_CONFORMER_ID>
002F06D000000001

>  <PUBCHEM_MMFF94_ENERGY>
21.1611

>  <PUBCHEM_FEATURE_SELFOVERLAP>
45.82

>  <PUBCHEM_SHAPE_FINGERPRINT>
11578080 2 17984388924466825000
124424 183 13686303465081884254
12553582 1 18411975828143526921
13221675 6 18412827958434911515
14576447 43 18340199790755604503
15375462 189 18409729534599286731
15775835 57 18334861610268107463
16945 1 18336255791022852248
18186145 218 18334289916019968276
20645476 183 18412826893626043687
21634736 98 18269552921791453590
22112679 90 18270106921196644770
232386 152 17775000210831931829
23388829 49 18336548222809405032
23402539 116 18410292511045120260
23402655 69 18335140847572397877
23559900 14 18339087094691280412
25 1 18186239536893781042
2748010 2 16032970615544397136
2871803 45 18192422198631418127
3312278 4 18412265042788448683
34934 24 18412260597376354768
528886 8 18407760339401988560
63268167 104 18335700520365318296
7364860 26 18058442273837337785
90525 40 18128818534492151421

>  <PUBCHEM_SHAPE_MULTIPOLES>
309.44
6.2
2.12
1.03
0.36
0.09
-0.23
0.5
-1.22
-0.4
0.18
0.26
0.17
-0.87

>  <PUBCHEM_SHAPE_SELFOVERLAP>
658.378

>  <PUBCHEM_SHAPE_VOLUME>
173.9

>  <PUBCHEM_COORDINATE_TYPE>
2
5
10

$$$$
3081936
 OpenBabel12092211553D

 27 28  0  0  1  0  0  0  0  0999 V2000
    4.3479    0.5117   -0.8201 Cl  0  0  0  0  0  0  0  0  0  0  0  0
   -3.5669   -0.7467   -1.0966 O   0  0  0  0  0  0  0  0  0  0  0  0
   -2.0524    0.4778   -2.2576 O   0  0  0  0  0  0  0  0  0  0  0  0
    1.4891    1.9059   -0.3135 N   0  0  0  0  0  0  0  0  0  0  0  0
   -4.2128    1.1902    0.4373 N   0  0  0  0  0  0  0  0  0  0  0  0
   -0.4072    1.0903    0.5027 C   0  0  0  0  0  0  0  0  0  0  0  0
   -1.8055    0.9898    0.9672 C   0  0  0  0  0  0  0  0  0  0  0  0
    0.5575    0.0444    0.4891 C   0  0  0  0  0  0  0  0  0  0  0  0
   -2.8613    1.3162   -0.1145 C   0  0  1  0  0  0  0  0  0  0  0  0
    1.7382    0.5824   -0.0274 C   0  0  0  0  0  0  0  0  0  0  0  0
    0.1953    2.2221    0.0036 C   0  0  0  0  0  0  0  0  0  0  0  0
    0.5395   -1.3127    0.8678 C   0  0  0  0  0  0  0  0  0  0  0  0
    2.9065   -0.1717   -0.1847 C   0  0  0  0  0  0  0  0  0  0  0  0
    1.7006   -2.0794    0.7161 C   0  0  0  0  0  0  0  0  0  0  0  0
   -2.7703    0.3396   -1.2750 C   0  0  0  0  0  0  0  0  0  0  0  0
    2.8648   -1.5156    0.1977 C   0  0  0  0  0  0  0  0  0  0  0  0
   -1.9477    1.6682    1.8198 H   0  0  0  0  0  0  0  0  0  0  0  0
   -1.9824   -0.0209    1.3606 H   0  0  0  0  0  0  0  0  0  0  0  0
   -2.7310    2.3370   -0.4926 H   0  0  0  0  0  0  0  0  0  0  0  0
   -0.1789    3.2239   -0.1557 H   0  0  0  0  0  0  0  0  0  0  0  0
    2.1643    2.5499   -0.7016 H   0  0  0  0  0  0  0  0  0  0  0  0
   -0.3558   -1.7691    1.2795 H   0  0  0  0  0  0  0  0  0  0  0  0
    1.6927   -3.1263    1.0079 H   0  0  0  0  0  0  0  0  0  0  0  0
    3.7486   -2.1417    0.0947 H   0  0  0  0  0  0  0  0  0  0  0  0
   -4.8949    1.4909   -0.2583 H   0  0  0  0  0  0  0  0  0  0  0  0
   -4.3174    1.8239    1.2289 H   0  0  0  0  0  0  0  0  0  0  0  0
   -3.4986   -1.3766   -1.8455 H   0  0  0  0  0  0  0  0  0  0  0  0
  1 13  1  0  0  0  0
  2 15  1  0  0  0  0
  2 27  1  0  0  0  0
  3 15  2  0  0  0  0
  4 10  1  0  0  0  0
  4 11  1  0  0  0  0
  4 21  1  0  0  0  0
  5  9  1  0  0  0  0
  5 25  1  0  0  0  0
  5 26  1  0  0  0  0
  6  7  1  0  0  0  0
  6  8  1  0  0  0  0
  6 11  2  0  0  0  0
  7  9  1  0  0  0  0
  7 17  1  0  0  0  0
  7 18  1  0  0  0  0
  8 10  2  0  0  0  0
  8 12  1  0  0  0  0
  9 15  1  0  0  0  0
  9 19  1  6  0  0  0
 10 13  1  0  0  0  0
 11 20  1  0  0  0  0
 12 14  2  0  0  0  0
 12 22  1  0  0  0  0
 13 16  2  0  0  0  0
 14 16  1  0  0  0  0
 14 23  1  0  0  0  0
 16 24  1  0  0  0  0
M  END
>  <PUBCHEM_COMPOUND_CID>
3081936

>  <PUBCHEM_CONFORMER_RMSD>
0.6

>  <PUBCHEM_CONFORMER_DIVERSEORDER>
1
16
18
12
6
14
13
15
5
9
11
7
3
17
8
4
2
10

>  <PUBCHEM_MMFF94_PARTIAL_CHARGES>
23
1 -0.18
10 -0.15
11 -0.3
12 -0.15
13 0.18
14 -0.15
15 0.66
16 -0.15
2 -0.65
20 0.15
21 0.27
22 0.15
23 0.15
24 0.15
25 0.36
26 0.36
27 0.5
3 -0.57
4 0.03
5 -0.99
6 -0.18
7 0.18
9 0.33

>  <PUBCHEM_EFFECTIVE_ROTOR_COUNT>
3

>  <PUBCHEM_PHARMACOPHORE_FEATURES>
9
1 2 acceptor
1 3 acceptor
1 4 cation
1 4 donor
1 5 cation
1 5 donor
3 2 3 15 anion
5 4 6 8 10 11 rings
6 8 10 12 13 14 16 rings

>  <PUBCHEM_HEAVY_ATOM_COUNT>
16

>  <PUBCHEM_ATOM_DEF_STEREO_COUNT>
1

>  <PUBCHEM_ATOM_UDEF_STEREO_COUNT>
0

>  <PUBCHEM_BOND_DEF_STEREO_COUNT>
0

>  <PUBCHEM_BOND_UDEF_STEREO_COUNT>
0

>  <PUBCHEM_ISOTOPIC_ATOM_COUNT>
0

>  <PUBCHEM_COMPONENT_COUNT>
1

>  <PUBCHEM_CACTVS_TAUTO_COUNT>
1

>  <PUBCHEM_CONFORMER_ID>
002F06D000000001

>  <PUBCHEM_MMFF94_ENERGY>
21.1611

>  <PUBCHEM_FEATURE_SELFOVERLAP>
45.82

>  <PUBCHEM_SHAPE_FINGERPRINT>
11578080 2 17984388924466825000
124424 183 13686303465081884254
12553582 1 18411975828143526921
13221675 6 18412827958434911515
14576447 43 18340199790755604503
15375462 189 18409729534599286731
15775835 57 18334861610268107463
16945 1 18336255791022852248
18186145 218 18334289916019968276
20645476 183 18412826893626043687
21634736 98 18269552921791453590
22112679 90 18270106921196644770
232386 152 17775000210831931829
23388829 49 18336548222809405032
23402539 116 18410292511045120260
23402655 69 18335140847572397877
23559900 14 18339087094691280412
25 1 18186239536893781042
2748010 2 16032970615544397136
2871803 45 18192422198631418127
3312278 4 18412265042788448683
34934 24 18412260597376354768
528886 8 18407760339401988560
63268167 104 18335700520365318296
7364860 26 18058442273837337785
90525 40 18128818534492151421

>  <PUBCHEM_SHAPE_MULTIPOLES>
309.44
6.2
2.12
1.03
0.36
0.09
-0.23
0.5
-1.22
-0.4
0.18
0.26
0.17
-0.87

>  <PUBCHEM_SHAPE_SELFOVERLAP>
658.378

>  <PUBCHEM_SHAPE_VOLUME>
173.9

>  <PUBCHEM_COORDINATE_TYPE>
2
5
10

$$$$
3081936
 OpenBabel12092211553D

 27 28  0  0  1  0  0  0  0  0999 V2000
    4.3479    0.5117   -0.8201 Cl  0  0  0  0  0  0  0  0  0  0  0  0
   -2.7965    3.7284    0.6903 O   0  0  0  0  0  0  0  0  0  0  0  0
   -1.2112    4.1817    2.2467 O   0  0  0  0  0  0  0  0  0  0  0  0
    1.4891    1.9059   -0.3135 N   0  0  0  0  0  0  0  0  0  0  0  0
   -3.5595    1.7656    2.5286 N   0  0  0  0  0  0  0  0  0  0  0  0
   -0.4072    1.0903    0.5027 C   0  0  0  0  0  0  0  0  0  0  0  0
   -1.8055    0.9898    0.9672 C   0  0  0  0  0  0  0  0  0  0  0  0
    0.5575    0.0444    0.4891 C   0  0  0  0  0  0  0  0  0  0  0  0
   -2.1575    1.9361    2.1385 C   0  0  1  0  0  0  0  0  0  0  0  0
    1.7382    0.5824   -0.0274 C   0  0  0  0  0  0  0  0  0  0  0  0
    0.1953    2.2221    0.0036 C   0  0  0  0  0  0  0  0  0  0  0  0
    0.5395   -1.3127    0.8678 C   0  0  0  0  0  0  0  0  0  0  0  0
    2.9065   -0.1717   -0.1847 C   0  0  0  0  0  0  0  0  0  0  0  0
    1.7006   -2.0794    0.7161 C   0  0  0  0  0  0  0  0  0  0  0  0
   -1.9909    3.3904    1.7312 C   0  0  0  0  0  0  0  0  0  0  0  0
    2.8648   -1.5156    0.1977 C   0  0  0  0  0  0  0  0  0  0  0  0
   -2.0059   -0.0462    1.2738 H   0  0  0  0  0  0  0  0  0  0  0  0
   -2.4804    1.1841    0.1220 H   0  0  0  0  0  0  0  0  0  0  0  0
   -1.5241    1.7320    3.0098 H   0  0  0  0  0  0  0  0  0  0  0  0
   -0.1789    3.2239   -0.1557 H   0  0  0  0  0  0  0  0  0  0  0  0
    2.1643    2.5499   -0.7016 H   0  0  0  0  0  0  0  0  0  0  0  0
   -0.3558   -1.7691    1.2795 H   0  0  0  0  0  0  0  0  0  0  0  0
    1.6927   -3.1263    1.0079 H   0  0  0  0  0  0  0  0  0  0  0  0
    3.7486   -2.1417    0.0947 H   0  0  0  0  0  0  0  0  0  0  0  0
   -3.7549    2.3298    3.3550 H   0  0  0  0  0  0  0  0  0  0  0  0
   -3.7209    0.7970    2.8024 H   0  0  0  0  0  0  0  0  0  0  0  0
   -2.6795    4.6662    0.4274 H   0  0  0  0  0  0  0  0  0  0  0  0
  1 13  1  0  0  0  0
  2 15  1  0  0  0  0
  2 27  1  0  0  0  0
  3 15  2  0  0  0  0
  4 10  1  0  0  0  0
  4 11  1  0  0  0  0
  4 21  1  0  0  0  0
  5  9  1  0  0  0  0
  5 25  1  0  0  0  0
  5 26  1  0  0  0  0
  6  7  1  0  0  0  0
  6  8  1  0  0  0  0
  6 11  2  0  0  0  0
  7  9  1  0  0  0  0
  7 17  1  0  0  0  0
  7 18  1  0  0  0  0
  8 10  2  0  0  0  0
  8 12  1  0  0  0  0
  9 15  1  0  0  0  0
  9 19  1  1  0  0  0
 10 13  1  0  0  0  0
 11 20  1  0  0  0  0
 12 14  2  0  0  0  0
 12 22  1  0  0  0  0
 13 16  2  0  0  0  0
 14 16  1  0  0  0  0
 14 23  1  0  0  0  0
 16 24  1  0  0  0  0
M  END
>  <PUBCHEM_COMPOUND_CID>
3081936

>  <PUBCHEM_CONFORMER_RMSD>
0.6

>  <PUBCHEM_CONFORMER_DIVERSEORDER>
1
16
18
12
6
14
13
15
5
9
11
7
3
17
8
4
2
10

>  <PUBCHEM_MMFF94_PARTIAL_CHARGES>
23
1 -0.18
10 -0.15
11 -0.3
12 -0.15
13 0.18
14 -0.15
15 0.66
16 -0.15
2 -0.65
20 0.15
21 0.27
22 0.15
23 0.15
24 0.15
25 0.36
26 0.36
27 0.5
3 -0.57
4 0.03
5 -0.99
6 -0.18
7 0.18
9 0.33

>  <PUBCHEM_EFFECTIVE_ROTOR_COUNT>
3

>  <PUBCHEM_PHARMACOPHORE_FEATURES>
9
1 2 acceptor
1 3 acceptor
1 4 cation
1 4 donor
1 5 cation
1 5 donor
3 2 3 15 anion
5 4 6 8 10 11 rings
6 8 10 12 13 14 16 rings

>  <PUBCHEM_HEAVY_ATOM_COUNT>
16

>  <PUBCHEM_ATOM_DEF_STEREO_COUNT>
1

>  <PUBCHEM_ATOM_UDEF_STEREO_COUNT>
0

>  <PUBCHEM_BOND_DEF_STEREO_COUNT>
0

>  <PUBCHEM_BOND_UDEF_STEREO_COUNT>
0

>  <PUBCHEM_ISOTOPIC_ATOM_COUNT>
0

>  <PUBCHEM_COMPONENT_COUNT>
1

>  <PUBCHEM_CACTVS_TAUTO_COUNT>
1

>  <PUBCHEM_CONFORMER_ID>
002F06D000000001

>  <PUBCHEM_MMFF94_ENERGY>
21.1611

>  <PUBCHEM_FEATURE_SELFOVERLAP>
45.82

>  <PUBCHEM_SHAPE_FINGERPRINT>
11578080 2 17984388924466825000
124424 183 13686303465081884254
12553582 1 18411975828143526921
13221675 6 18412827958434911515
14576447 43 18340199790755604503
15375462 189 18409729534599286731
15775835 57 18334861610268107463
16945 1 18336255791022852248
18186145 218 18334289916019968276
20645476 183 18412826893626043687
21634736 98 18269552921791453590
22112679 90 18270106921196644770
232386 152 17775000210831931829
23388829 49 18336548222809405032
23402539 116 18410292511045120260
23402655 69 18335140847572397877
23559900 14 18339087094691280412
25 1 18186239536893781042
2748010 2 16032970615544397136
2871803 45 18192422198631418127
3312278 4 18412265042788448683
34934 24 18412260597376354768
528886 8 18407760339401988560
63268167 104 18335700520365318296
7364860 26 18058442273837337785
90525 40 18128818534492151421

>  <PUBCHEM_SHAPE_MULTIPOLES>
309.44
6.2
2.12
1.03
0.36
0.09
-0.23
0.5
-1.22
-0.4
0.18
0.26
0.17
-0.87

>  <PUBCHEM_SHAPE_SELFOVERLAP>
658.378

>  <PUBCHEM_SHAPE_VOLUME>
173.9

>  <PUBCHEM_COORDINATE_TYPE>
2
5
10

$$$$
3081936
 OpenBabel12092211553D

 27 28  0  0  1  0  0  0  0  0999 V2000
    4.3479    0.5117   -0.8201 Cl  0  0  0  0  0  0  0  0  0  0  0  0
   -4.6900    2.9013    1.3977 O   0  0  0  0  0  0  0  0  0  0  0  0
   -4.1345    1.3326    2.9378 O   0  0  0  0  0  0  0  0  0  0  0  0
    1.4891    1.9059   -0.3135 N   0  0  0  0  0  0  0  0  0  0  0  0
   -1.5891    2.7387    2.7024 N   0  0  0  0  0  0  0  0  0  0  0  0
   -0.4072    1.0903    0.5027 C   0  0  0  0  0  0  0  0  0  0  0  0
   -1.8055    0.9898    0.9672 C   0  0  0  0  0  0  0  0  0  0  0  0
    0.5575    0.0444    0.4891 C   0  0  0  0  0  0  0  0  0  0  0  0
   -2.3798    2.3026    1.5485 C   0  0  1  0  0  0  0  0  0  0  0  0
    1.7382    0.5824   -0.0274 C   0  0  0  0  0  0  0  0  0  0  0  0
    0.1953    2.2221    0.0036 C   0  0  0  0  0  0  0  0  0  0  0  0
    0.5395   -1.3127    0.8678 C   0  0  0  0  0  0  0  0  0  0  0  0
    2.9065   -0.1717   -0.1847 C   0  0  0  0  0  0  0  0  0  0  0  0
    1.7006   -2.0794    0.7161 C   0  0  0  0  0  0  0  0  0  0  0  0
   -3.8020    2.1012    2.0442 C   0  0  0  0  0  0  0  0  0  0  0  0
    2.8648   -1.5156    0.1977 C   0  0  0  0  0  0  0  0  0  0  0  0
   -1.8718    0.2030    1.7313 H   0  0  0  0  0  0  0  0  0  0  0  0
   -2.4374    0.6485    0.1355 H   0  0  0  0  0  0  0  0  0  0  0  0
   -2.3710    3.1001    0.7961 H   0  0  0  0  0  0  0  0  0  0  0  0
   -0.1789    3.2239   -0.1557 H   0  0  0  0  0  0  0  0  0  0  0  0
    2.1643    2.5499   -0.7016 H   0  0  0  0  0  0  0  0  0  0  0  0
   -0.3558   -1.7691    1.2795 H   0  0  0  0  0  0  0  0  0  0  0  0
    1.6927   -3.1263    1.0079 H   0  0  0  0  0  0  0  0  0  0  0  0
    3.7486   -2.1417    0.0947 H   0  0  0  0  0  0  0  0  0  0  0  0
   -1.9238    3.6472    3.0219 H   0  0  0  0  0  0  0  0  0  0  0  0
   -0.6203    2.8781    2.4175 H   0  0  0  0  0  0  0  0  0  0  0  0
   -5.6050    2.7719    1.7268 H   0  0  0  0  0  0  0  0  0  0  0  0
  1 13  1  0  0  0  0
  2 15  1  0  0  0  0
  2 27  1  0  0  0  0
  3 15  2  0  0  0  0
  4 10  1  0  0  0  0
  4 11  1  0  0  0  0
  4 21  1  0  0  0  0
  5  9  1  0  0  0  0
  5 25  1  0  0  0  0
  5 26  1  0  0  0  0
  6  7  1  0  0  0  0
  6  8  1  0  0  0  0
  6 11  2  0  0  0  0
  7  9  1  0  0  0  0
  7 17  1  0  0  0  0
  7 18  1  0  0  0  0
  8 10  2  0  0  0  0
  8 12  1  0  0  0  0
  9 15  1  0  0  0  0
  9 19  1  6  0  0  0
 10 13  1  0  0  0  0
 11 20  1  0  0  0  0
 12 14  2  0  0  0  0
 12 22  1  0  0  0  0
 13 16  2  0  0  0  0
 14 16  1  0  0  0  0
 14 23  1  0  0  0  0
 16 24  1  0  0  0  0
M  END
>  <PUBCHEM_COMPOUND_CID>
3081936

>  <PUBCHEM_CONFORMER_RMSD>
0.6

>  <PUBCHEM_CONFORMER_DIVERSEORDER>
1
16
18
12
6
14
13
15
5
9
11
7
3
17
8
4
2
10

>  <PUBCHEM_MMFF94_PARTIAL_CHARGES>
23
1 -0.18
10 -0.15
11 -0.3
12 -0.15
13 0.18
14 -0.15
15 0.66
16 -0.15
2 -0.65
20 0.15
21 0.27
22 0.15
23 0.15
24 0.15
25 0.36
26 0.36
27 0.5
3 -0.57
4 0.03
5 -0.99
6 -0.18
7 0.18
9 0.33

>  <PUBCHEM_EFFECTIVE_ROTOR_COUNT>
3

>  <PUBCHEM_PHARMACOPHORE_FEATURES>
9
1 2 acceptor
1 3 acceptor
1 4 cation
1 4 donor
1 5 cation
1 5 donor
3 2 3 15 anion
5 4 6 8 10 11 rings
6 8 10 12 13 14 16 rings

>  <PUBCHEM_HEAVY_ATOM_COUNT>
16

>  <PUBCHEM_ATOM_DEF_STEREO_COUNT>
1

>  <PUBCHEM_ATOM_UDEF_STEREO_COUNT>
0

>  <PUBCHEM_BOND_DEF_STEREO_COUNT>
0

>  <PUBCHEM_BOND_UDEF_STEREO_COUNT>
0

>  <PUBCHEM_ISOTOPIC_ATOM_COUNT>
0

>  <PUBCHEM_COMPONENT_COUNT>
1

>  <PUBCHEM_CACTVS_TAUTO_COUNT>
1

>  <PUBCHEM_CONFORMER_ID>
002F06D000000001

>  <PUBCHEM_MMFF94_ENERGY>
21.1611

>  <PUBCHEM_FEATURE_SELFOVERLAP>
45.82

>  <PUBCHEM_SHAPE_FINGERPRINT>
11578080 2 17984388924466825000
124424 183 13686303465081884254
12553582 1 18411975828143526921
13221675 6 18412827958434911515
14576447 43 18340199790755604503
15375462 189 18409729534599286731
15775835 57 18334861610268107463
16945 1 18336255791022852248
18186145 218 18334289916019968276
20645476 183 18412826893626043687
21634736 98 18269552921791453590
22112679 90 18270106921196644770
232386 152 17775000210831931829
23388829 49 18336548222809405032
23402539 116 18410292511045120260
23402655 69 18335140847572397877
23559900 14 18339087094691280412
25 1 18186239536893781042
2748010 2 16032970615544397136
2871803 45 18192422198631418127
3312278 4 18412265042788448683
34934 24 18412260597376354768
528886 8 18407760339401988560
63268167 104 18335700520365318296
7364860 26 18058442273837337785
90525 40 18128818534492151421

>  <PUBCHEM_SHAPE_MULTIPOLES>
309.44
6.2
2.12
1.03
0.36
0.09
-0.23
0.5
-1.22
-0.4
0.18
0.26
0.17
-0.87

>  <PUBCHEM_SHAPE_SELFOVERLAP>
658.378

>  <PUBCHEM_SHAPE_VOLUME>
173.9

>  <PUBCHEM_COORDINATE_TYPE>
2
5
10

$$$$
3081936
 OpenBabel12092211553D

 27 28  0  0  1  0  0  0  0  0999 V2000
    4.3479    0.5117   -0.8201 Cl  0  0  0  0  0  0  0  0  0  0  0  0
   -2.7130    1.7109   -1.4573 O   0  0  0  0  0  0  0  0  0  0  0  0
   -2.7753    3.9228   -0.9624 O   0  0  0  0  0  0  0  0  0  0  0  0
    1.4891    1.9059   -0.3135 N   0  0  0  0  0  0  0  0  0  0  0  0
   -3.9795    2.1088    1.3385 N   0  0  0  0  0  0  0  0  0  0  0  0
   -0.4072    1.0903    0.5027 C   0  0  0  0  0  0  0  0  0  0  0  0
   -1.8055    0.9898    0.9672 C   0  0  0  0  0  0  0  0  0  0  0  0
    0.5575    0.0444    0.4891 C   0  0  0  0  0  0  0  0  0  0  0  0
   -2.6100    2.3058    0.8564 C   0  0  1  0  0  0  0  0  0  0  0  0
    1.7382    0.5824   -0.0274 C   0  0  0  0  0  0  0  0  0  0  0  0
    0.1953    2.2221    0.0036 C   0  0  0  0  0  0  0  0  0  0  0  0
    0.5395   -1.3127    0.8678 C   0  0  0  0  0  0  0  0  0  0  0  0
    2.9065   -0.1717   -0.1847 C   0  0  0  0  0  0  0  0  0  0  0  0
    1.7006   -2.0794    0.7161 C   0  0  0  0  0  0  0  0  0  0  0  0
   -2.7166    2.7575   -0.5905 C   0  0  0  0  0  0  0  0  0  0  0  0
    2.8648   -1.5156    0.1977 C   0  0  0  0  0  0  0  0  0  0  0  0
   -1.8104    0.6565    2.0142 H   0  0  0  0  0  0  0  0  0  0  0  0
   -2.3164    0.1978    0.4022 H   0  0  0  0  0  0  0  0  0  0  0  0
   -2.1414    3.1014    1.4477 H   0  0  0  0  0  0  0  0  0  0  0  0
   -0.1789    3.2239   -0.1557 H   0  0  0  0  0  0  0  0  0  0  0  0
    2.1643    2.5499   -0.7016 H   0  0  0  0  0  0  0  0  0  0  0  0
   -0.3558   -1.7691    1.2795 H   0  0  0  0  0  0  0  0  0  0  0  0
    1.6927   -3.1263    1.0079 H   0  0  0  0  0  0  0  0  0  0  0  0
    3.7486   -2.1417    0.0947 H   0  0  0  0  0  0  0  0  0  0  0  0
   -4.4721    3.0014    1.3414 H   0  0  0  0  0  0  0  0  0  0  0  0
   -3.9568    1.7947    2.3080 H   0  0  0  0  0  0  0  0  0  0  0  0
   -2.7750    2.0090   -2.3899 H   0  0  0  0  0  0  0  0  0  0  0  0
  1 13  1  0  0  0  0
  2 15  1  0  0  0  0
  2 27  1  0  0  0  0
  3 15  2  0  0  0  0
  4 10  1  0  0  0  0
  4 11  1  0  0  0  0
  4 21  1  0  0  0  0
  5  9  1  0  0  0  0
  5 25  1  0  0  0  0
  5 26  1  0  0  0  0
  6  7  1  0  0  0  0
  6  8  1  0  0  0  0
  6 11  2  0  0  0  0
  7  9  1  0  0  0  0
  7 17  1  0  0  0  0
  7 18  1  0  0  0  0
  8 10  2  0  0  0  0
  8 12  1  0  0  0  0
  9 15  1  0  0  0  0
  9 19  1  1  0  0  0
 10 13  1  0  0  0  0
 11 20  1  0  0  0  0
 12 14  2  0  0  0  0
 12 22  1  0  0  0  0
 13 16  2  0  0  0  0
 14 16  1  0  0  0  0
 14 23  1  0  0  0  0
 16 24  1  0  0  0  0
M  END
>  <PUBCHEM_COMPOUND_CID>
3081936

>  <PUBCHEM_CONFORMER_RMSD>
0.6

>  <PUBCHEM_CONFORMER_DIVERSEORDER>
1
16
18
12
6
14
13
15
5
9
11
7
3
17
8
4
2
10

>  <PUBCHEM_MMFF94_PARTIAL_CHARGES>
23
1 -0.18
10 -0.15
11 -0.3
12 -0.15
13 0.18
14 -0.15
15 0.66
16 -0.15
2 -0.65
20 0.15
21 0.27
22 0.15
23 0.15
24 0.15
25 0.36
26 0.36
27 0.5
3 -0.57
4 0.03
5 -0.99
6 -0.18
7 0.18
9 0.33

>  <PUBCHEM_EFFECTIVE_ROTOR_COUNT>
3

>  <PUBCHEM_PHARMACOPHORE_FEATURES>
9
1 2 acceptor
1 3 acceptor
1 4 cation
1 4 donor
1 5 cation
1 5 donor
3 2 3 15 anion
5 4 6 8 10 11 rings
6 8 10 12 13 14 16 rings

>  <PUBCHEM_HEAVY_ATOM_COUNT>
16

>  <PUBCHEM_ATOM_DEF_STEREO_COUNT>
1

>  <PUBCHEM_ATOM_UDEF_STEREO_COUNT>
0

>  <PUBCHEM_BOND_DEF_STEREO_COUNT>
0

>  <PUBCHEM_BOND_UDEF_STEREO_COUNT>
0

>  <PUBCHEM_ISOTOPIC_ATOM_COUNT>
0

>  <PUBCHEM_COMPONENT_COUNT>
1

>  <PUBCHEM_CACTVS_TAUTO_COUNT>
1

>  <PUBCHEM_CONFORMER_ID>
002F06D000000001

>  <PUBCHEM_MMFF94_ENERGY>
21.1611

>  <PUBCHEM_FEATURE_SELFOVERLAP>
45.82

>  <PUBCHEM_SHAPE_FINGERPRINT>
11578080 2 17984388924466825000
124424 183 13686303465081884254
12553582 1 18411975828143526921
13221675 6 18412827958434911515
14576447 43 18340199790755604503
15375462 189 18409729534599286731
15775835 57 18334861610268107463
16945 1 18336255791022852248
18186145 218 18334289916019968276
20645476 183 18412826893626043687
21634736 98 18269552921791453590
22112679 90 18270106921196644770
232386 152 17775000210831931829
23388829 49 18336548222809405032
23402539 116 18410292511045120260
23402655 69 18335140847572397877
23559900 14 18339087094691280412
25 1 18186239536893781042
2748010 2 16032970615544397136
2871803 45 18192422198631418127
3312278 4 18412265042788448683
34934 24 18412260597376354768
528886 8 18407760339401988560
63268167 104 18335700520365318296
7364860 26 18058442273837337785
90525 40 18128818534492151421

>  <PUBCHEM_SHAPE_MULTIPOLES>
309.44
6.2
2.12
1.03
0.36
0.09
-0.23
0.5
-1.22
-0.4
0.18
0.26
0.17
-0.87

>  <PUBCHEM_SHAPE_SELFOVERLAP>
658.378

>  <PUBCHEM_SHAPE_VOLUME>
173.9

>  <PUBCHEM_COORDINATE_TYPE>
2
5
10

$$$$
3081936
 OpenBabel12092211553D

 27 28  0  0  1  0  0  0  0  0999 V2000
    4.3479    0.5117   -0.8201 Cl  0  0  0  0  0  0  0  0  0  0  0  0
   -2.6218    3.4610    3.2949 O   0  0  0  0  0  0  0  0  0  0  0  0
   -0.4837    3.2096    2.5834 O   0  0  0  0  0  0  0  0  0  0  0  0
    1.4891    1.9059   -0.3135 N   0  0  0  0  0  0  0  0  0  0  0  0
   -3.4156    1.1792    2.8348 N   0  0  0  0  0  0  0  0  0  0  0  0
   -0.4072    1.0903    0.5027 C   0  0  0  0  0  0  0  0  0  0  0  0
   -1.8055    0.9898    0.9672 C   0  0  0  0  0  0  0  0  0  0  0  0
    0.5575    0.0444    0.4891 C   0  0  0  0  0  0  0  0  0  0  0  0
   -2.0025    1.3043    2.4684 C   0  0  1  0  0  0  0  0  0  0  0  0
    1.7382    0.5824   -0.0274 C   0  0  0  0  0  0  0  0  0  0  0  0
    0.1953    2.2221    0.0036 C   0  0  0  0  0  0  0  0  0  0  0  0
    0.5395   -1.3127    0.8678 C   0  0  0  0  0  0  0  0  0  0  0  0
    2.9065   -0.1717   -0.1847 C   0  0  0  0  0  0  0  0  0  0  0  0
    1.7006   -2.0794    0.7161 C   0  0  0  0  0  0  0  0  0  0  0  0
   -1.5946    2.7340    2.7822 C   0  0  0  0  0  0  0  0  0  0  0  0
    2.8648   -1.5156    0.1977 C   0  0  0  0  0  0  0  0  0  0  0  0
   -2.1768   -0.0242    0.7641 H   0  0  0  0  0  0  0  0  0  0  0  0
   -2.4338    1.6610    0.3653 H   0  0  0  0  0  0  0  0  0  0  0  0
   -1.4168    0.6184    3.0917 H   0  0  0  0  0  0  0  0  0  0  0  0
   -0.1789    3.2239   -0.1557 H   0  0  0  0  0  0  0  0  0  0  0  0
    2.1643    2.5499   -0.7016 H   0  0  0  0  0  0  0  0  0  0  0  0
   -0.3558   -1.7691    1.2795 H   0  0  0  0  0  0  0  0  0  0  0  0
    1.6927   -3.1263    1.0079 H   0  0  0  0  0  0  0  0  0  0  0  0
    3.7486   -2.1417    0.0947 H   0  0  0  0  0  0  0  0  0  0  0  0
   -3.5196    1.3036    3.8414 H   0  0  0  0  0  0  0  0  0  0  0  0
   -3.7370    0.2333    2.6317 H   0  0  0  0  0  0  0  0  0  0  0  0
   -2.3544    4.3847    3.4889 H   0  0  0  0  0  0  0  0  0  0  0  0
  1 13  1  0  0  0  0
  2 15  1  0  0  0  0
  2 27  1  0  0  0  0
  3 15  2  0  0  0  0
  4 10  1  0  0  0  0
  4 11  1  0  0  0  0
  4 21  1  0  0  0  0
  5  9  1  0  0  0  0
  5 25  1  0  0  0  0
  5 26  1  0  0  0  0
  6  7  1  0  0  0  0
  6  8  1  0  0  0  0
  6 11  2  0  0  0  0
  7  9  1  0  0  0  0
  7 17  1  0  0  0  0
  7 18  1  0  0  0  0
  8 10  2  0  0  0  0
  8 12  1  0  0  0  0
  9 15  1  0  0  0  0
  9 19  1  1  0  0  0
 10 13  1  0  0  0  0
 11 20  1  0  0  0  0
 12 14  2  0  0  0  0
 12 22  1  0  0  0  0
 13 16  2  0  0  0  0
 14 16  1  0  0  0  0
 14 23  1  0  0  0  0
 16 24  1  0  0  0  0
M  END
>  <PUBCHEM_COMPOUND_CID>
3081936

>  <PUBCHEM_CONFORMER_RMSD>
0.6

>  <PUBCHEM_CONFORMER_DIVERSEORDER>
1
16
18
12
6
14
13
15
5
9
11
7
3
17
8
4
2
10

>  <PUBCHEM_MMFF94_PARTIAL_CHARGES>
23
1 -0.18
10 -0.15
11 -0.3
12 -0.15
13 0.18
14 -0.15
15 0.66
16 -0.15
2 -0.65
20 0.15
21 0.27
22 0.15
23 0.15
24 0.15
25 0.36
26 0.36
27 0.5
3 -0.57
4 0.03
5 -0.99
6 -0.18
7 0.18
9 0.33

>  <PUBCHEM_EFFECTIVE_ROTOR_COUNT>
3

>  <PUBCHEM_PHARMACOPHORE_FEATURES>
9
1 2 acceptor
1 3 acceptor
1 4 cation
1 4 donor
1 5 cation
1 5 donor
3 2 3 15 anion
5 4 6 8 10 11 rings
6 8 10 12 13 14 16 rings

>  <PUBCHEM_HEAVY_ATOM_COUNT>
16

>  <PUBCHEM_ATOM_DEF_STEREO_COUNT>
1

>  <PUBCHEM_ATOM_UDEF_STEREO_COUNT>
0

>  <PUBCHEM_BOND_DEF_STEREO_COUNT>
0

>  <PUBCHEM_BOND_UDEF_STEREO_COUNT>
0

>  <PUBCHEM_ISOTOPIC_ATOM_COUNT>
0

>  <PUBCHEM_COMPONENT_COUNT>
1

>  <PUBCHEM_CACTVS_TAUTO_COUNT>
1

>  <PUBCHEM_CONFORMER_ID>
002F06D000000001

>  <PUBCHEM_MMFF94_ENERGY>
21.1611

>  <PUBCHEM_FEATURE_SELFOVERLAP>
45.82

>  <PUBCHEM_SHAPE_FINGERPRINT>
11578080 2 17984388924466825000
124424 183 13686303465081884254
12553582 1 18411975828143526921
13221675 6 18412827958434911515
14576447 43 18340199790755604503
15375462 189 18409729534599286731
15775835 57 18334861610268107463
16945 1 18336255791022852248
18186145 218 18334289916019968276
20645476 183 18412826893626043687
21634736 98 18269552921791453590
22112679 90 18270106921196644770
232386 152 17775000210831931829
23388829 49 18336548222809405032
23402539 116 18410292511045120260
23402655 69 18335140847572397877
23559900 14 18339087094691280412
25 1 18186239536893781042
2748010 2 16032970615544397136
2871803 45 18192422198631418127
3312278 4 18412265042788448683
34934 24 18412260597376354768
528886 8 18407760339401988560
63268167 104 18335700520365318296
7364860 26 18058442273837337785
90525 40 18128818534492151421

>  <PUBCHEM_SHAPE_MULTIPOLES>
309.44
6.2
2.12
1.03
0.36
0.09
-0.23
0.5
-1.22
-0.4
0.18
0.26
0.17
-0.87

>  <PUBCHEM_SHAPE_SELFOVERLAP>
658.378

>  <PUBCHEM_SHAPE_VOLUME>
173.9

>  <PUBCHEM_COORDINATE_TYPE>
2
5
10

$$$$
3081936
 OpenBabel12092211553D

 27 28  0  0  1  0  0  0  0  0999 V2000
    4.3479    0.5117   -0.8201 Cl  0  0  0  0  0  0  0  0  0  0  0  0
   -0.2775    1.0582    4.1060 O   0  0  0  0  0  0  0  0  0  0  0  0
   -1.2388   -0.8446    3.3338 O   0  0  0  0  0  0  0  0  0  0  0  0
    1.4891    1.9059   -0.3135 N   0  0  0  0  0  0  0  0  0  0  0  0
   -1.5632    2.6702    2.7654 N   0  0  0  0  0  0  0  0  0  0  0  0
   -0.4072    1.0903    0.5027 C   0  0  0  0  0  0  0  0  0  0  0  0
   -1.8055    0.9898    0.9672 C   0  0  0  0  0  0  0  0  0  0  0  0
    0.5575    0.0444    0.4891 C   0  0  0  0  0  0  0  0  0  0  0  0
   -2.0025    1.3043    2.4684 C   0  0  1  0  0  0  0  0  0  0  0  0
    1.7382    0.5824   -0.0274 C   0  0  0  0  0  0  0  0  0  0  0  0
    0.1953    2.2221    0.0036 C   0  0  0  0  0  0  0  0  0  0  0  0
    0.5395   -1.3127    0.8678 C   0  0  0  0  0  0  0  0  0  0  0  0
    2.9065   -0.1717   -0.1847 C   0  0  0  0  0  0  0  0  0  0  0  0
    1.7006   -2.0794    0.7161 C   0  0  0  0  0  0  0  0  0  0  0  0
   -1.1637    0.3778    3.3325 C   0  0  0  0  0  0  0  0  0  0  0  0
    2.8648   -1.5156    0.1977 C   0  0  0  0  0  0  0  0  0  0  0  0
   -2.1768   -0.0242    0.7641 H   0  0  0  0  0  0  0  0  0  0  0  0
   -2.4338    1.6610    0.3653 H   0  0  0  0  0  0  0  0  0  0  0  0
   -3.0565    1.2054    2.7535 H   0  0  0  0  0  0  0  0  0  0  0  0
   -0.1789    3.2239   -0.1557 H   0  0  0  0  0  0  0  0  0  0  0  0
    2.1643    2.5499   -0.7016 H   0  0  0  0  0  0  0  0  0  0  0  0
   -0.3558   -1.7691    1.2795 H   0  0  0  0  0  0  0  0  0  0  0  0
    1.6927   -3.1263    1.0079 H   0  0  0  0  0  0  0  0  0  0  0  0
    3.7486   -2.1417    0.0947 H   0  0  0  0  0  0  0  0  0  0  0  0
   -1.7780    2.8942    3.7366 H   0  0  0  0  0  0  0  0  0  0  0  0
   -2.0953    3.3294    2.1985 H   0  0  0  0  0  0  0  0  0  0  0  0
    0.2658    0.4545    4.6562 H   0  0  0  0  0  0  0  0  0  0  0  0
  1 13  1  0  0  0  0
  2 15  1  0  0  0  0
  2 27  1  0  0  0  0
  3 15  2  0  0  0  0
  4 10  1  0  0  0  0
  4 11  1  0  0  0  0
  4 21  1  0  0  0  0
  5  9  1  0  0  0  0
  5 25  1  0  0  0  0
  5 26  1  0  0  0  0
  6  7  1  0  0  0  0
  6  8  1  0  0  0  0
  6 11  2  0  0  0  0
  7  9  1  0  0  0  0
  7 17  1  0  0  0  0
  7 18  1  0  0  0  0
  8 10  2  0  0  0  0
  8 12  1  0  0  0  0
  9 15  1  0  0  0  0
  9 19  1  1  0  0  0
 10 13  1  0  0  0  0
 11 20  1  0  0  0  0
 12 14  2  0  0  0  0
 12 22  1  0  0  0  0
 13 16  2  0  0  0  0
 14 16  1  0  0  0  0
 14 23  1  0  0  0  0
 16 24  1  0  0  0  0
M  END
>  <PUBCHEM_COMPOUND_CID>
3081936

>  <PUBCHEM_CONFORMER_RMSD>
0.6

>  <PUBCHEM_CONFORMER_DIVERSEORDER>
1
16
18
12
6
14
13
15
5
9
11
7
3
17
8
4
2
10

>  <PUBCHEM_MMFF94_PARTIAL_CHARGES>
23
1 -0.18
10 -0.15
11 -0.3
12 -0.15
13 0.18
14 -0.15
15 0.66
16 -0.15
2 -0.65
20 0.15
21 0.27
22 0.15
23 0.15
24 0.15
25 0.36
26 0.36
27 0.5
3 -0.57
4 0.03
5 -0.99
6 -0.18
7 0.18
9 0.33

>  <PUBCHEM_EFFECTIVE_ROTOR_COUNT>
3

>  <PUBCHEM_PHARMACOPHORE_FEATURES>
9
1 2 acceptor
1 3 acceptor
1 4 cation
1 4 donor
1 5 cation
1 5 donor
3 2 3 15 anion
5 4 6 8 10 11 rings
6 8 10 12 13 14 16 rings

>  <PUBCHEM_HEAVY_ATOM_COUNT>
16

>  <PUBCHEM_ATOM_DEF_STEREO_COUNT>
1

>  <PUBCHEM_ATOM_UDEF_STEREO_COUNT>
0

>  <PUBCHEM_BOND_DEF_STEREO_COUNT>
0

>  <PUBCHEM_BOND_UDEF_STEREO_COUNT>
0

>  <PUBCHEM_ISOTOPIC_ATOM_COUNT>
0

>  <PUBCHEM_COMPONENT_COUNT>
1

>  <PUBCHEM_CACTVS_TAUTO_COUNT>
1

>  <PUBCHEM_CONFORMER_ID>
002F06D000000001

>  <PUBCHEM_MMFF94_ENERGY>
21.1611

>  <PUBCHEM_FEATURE_SELFOVERLAP>
45.82

>  <PUBCHEM_SHAPE_FINGERPRINT>
11578080 2 17984388924466825000
124424 183 13686303465081884254
12553582 1 18411975828143526921
13221675 6 18412827958434911515
14576447 43 18340199790755604503
15375462 189 18409729534599286731
15775835 57 18334861610268107463
16945 1 18336255791022852248
18186145 218 18334289916019968276
20645476 183 18412826893626043687
21634736 98 18269552921791453590
22112679 90 18270106921196644770
232386 152 17775000210831931829
23388829 49 18336548222809405032
23402539 116 18410292511045120260
23402655 69 18335140847572397877
23559900 14 18339087094691280412
25 1 18186239536893781042
2748010 2 16032970615544397136
2871803 45 18192422198631418127
3312278 4 18412265042788448683
34934 24 18412260597376354768
528886 8 18407760339401988560
63268167 104 18335700520365318296
7364860 26 18058442273837337785
90525 40 18128818534492151421

>  <PUBCHEM_SHAPE_MULTIPOLES>
309.44
6.2
2.12
1.03
0.36
0.09
-0.23
0.5
-1.22
-0.4
0.18
0.26
0.17
-0.87

>  <PUBCHEM_SHAPE_SELFOVERLAP>
658.378

>  <PUBCHEM_SHAPE_VOLUME>
173.9

>  <PUBCHEM_COORDINATE_TYPE>
2
5
10

$$$$
3081936
 OpenBabel12092211553D

 27 28  0  0  1  0  0  0  0  0999 V2000
    4.3479    0.5117   -0.8201 Cl  0  0  0  0  0  0  0  0  0  0  0  0
   -0.8443    0.3855    3.3992 O   0  0  0  0  0  0  0  0  0  0  0  0
   -0.9421    2.5146    4.1728 O   0  0  0  0  0  0  0  0  0  0  0  0
    1.4891    1.9059   -0.3135 N   0  0  0  0  0  0  0  0  0  0  0  0
   -1.9492    3.3325    1.7466 N   0  0  0  0  0  0  0  0  0  0  0  0
   -0.4072    1.0903    0.5027 C   0  0  0  0  0  0  0  0  0  0  0  0
   -1.8055    0.9898    0.9672 C   0  0  0  0  0  0  0  0  0  0  0  0
    0.5575    0.0444    0.4891 C   0  0  0  0  0  0  0  0  0  0  0  0
   -2.1575    1.9361    2.1385 C   0  0  1  0  0  0  0  0  0  0  0  0
    1.7382    0.5824   -0.0274 C   0  0  0  0  0  0  0  0  0  0  0  0
    0.1953    2.2221    0.0036 C   0  0  0  0  0  0  0  0  0  0  0  0
    0.5395   -1.3127    0.8678 C   0  0  0  0  0  0  0  0  0  0  0  0
    2.9065   -0.1717   -0.1847 C   0  0  0  0  0  0  0  0  0  0  0  0
    1.7006   -2.0794    0.7161 C   0  0  0  0  0  0  0  0  0  0  0  0
   -1.2565    1.6788    3.3347 C   0  0  0  0  0  0  0  0  0  0  0  0
    2.8648   -1.5156    0.1977 C   0  0  0  0  0  0  0  0  0  0  0  0
   -2.0059   -0.0462    1.2738 H   0  0  0  0  0  0  0  0  0  0  0  0
   -2.4804    1.1841    0.1220 H   0  0  0  0  0  0  0  0  0  0  0  0
   -3.2033    1.8097    2.4425 H   0  0  0  0  0  0  0  0  0  0  0  0
   -0.1789    3.2239   -0.1557 H   0  0  0  0  0  0  0  0  0  0  0  0
    2.1643    2.5499   -0.7016 H   0  0  0  0  0  0  0  0  0  0  0  0
   -0.3558   -1.7691    1.2795 H   0  0  0  0  0  0  0  0  0  0  0  0
    1.6927   -3.1263    1.0079 H   0  0  0  0  0  0  0  0  0  0  0  0
    3.7486   -2.1417    0.0947 H   0  0  0  0  0  0  0  0  0  0  0  0
   -2.2661    3.9480    2.4951 H   0  0  0  0  0  0  0  0  0  0  0  0
   -2.5300    3.5487    0.9372 H   0  0  0  0  0  0  0  0  0  0  0  0
   -0.2689    0.2240    4.1770 H   0  0  0  0  0  0  0  0  0  0  0  0
  1 13  1  0  0  0  0
  2 15  1  0  0  0  0
  2 27  1  0  0  0  0
  3 15  2  0  0  0  0
  4 10  1  0  0  0  0
  4 11  1  0  0  0  0
  4 21  1  0  0  0  0
  5  9  1  0  0  0  0
  5 25  1  0  0  0  0
  5 26  1  0  0  0  0
  6  7  1  0  0  0  0
  6  8  1  0  0  0  0
  6 11  2  0  0  0  0
  7  9  1  0  0  0  0
  7 17  1  0  0  0  0
  7 18  1  0  0  0  0
  8 10  2  0  0  0  0
  8 12  1  0  0  0  0
  9 15  1  0  0  0  0
  9 19  1  1  0  0  0
 10 13  1  0  0  0  0
 11 20  1  0  0  0  0
 12 14  2  0  0  0  0
 12 22  1  0  0  0  0
 13 16  2  0  0  0  0
 14 16  1  0  0  0  0
 14 23  1  0  0  0  0
 16 24  1  0  0  0  0
M  END
>  <PUBCHEM_COMPOUND_CID>
3081936

>  <PUBCHEM_CONFORMER_RMSD>
0.6

>  <PUBCHEM_CONFORMER_DIVERSEORDER>
1
16
18
12
6
14
13
15
5
9
11
7
3
17
8
4
2
10

>  <PUBCHEM_MMFF94_PARTIAL_CHARGES>
23
1 -0.18
10 -0.15
11 -0.3
12 -0.15
13 0.18
14 -0.15
15 0.66
16 -0.15
2 -0.65
20 0.15
21 0.27
22 0.15
23 0.15
24 0.15
25 0.36
26 0.36
27 0.5
3 -0.57
4 0.03
5 -0.99
6 -0.18
7 0.18
9 0.33

>  <PUBCHEM_EFFECTIVE_ROTOR_COUNT>
3

>  <PUBCHEM_PHARMACOPHORE_FEATURES>
9
1 2 acceptor
1 3 acceptor
1 4 cation
1 4 donor
1 5 cation
1 5 donor
3 2 3 15 anion
5 4 6 8 10 11 rings
6 8 10 12 13 14 16 rings

>  <PUBCHEM_HEAVY_ATOM_COUNT>
16

>  <PUBCHEM_ATOM_DEF_STEREO_COUNT>
1

>  <PUBCHEM_ATOM_UDEF_STEREO_COUNT>
0

>  <PUBCHEM_BOND_DEF_STEREO_COUNT>
0

>  <PUBCHEM_BOND_UDEF_STEREO_COUNT>
0

>  <PUBCHEM_ISOTOPIC_ATOM_COUNT>
0

>  <PUBCHEM_COMPONENT_COUNT>
1

>  <PUBCHEM_CACTVS_TAUTO_COUNT>
1

>  <PUBCHEM_CONFORMER_ID>
002F06D000000001

>  <PUBCHEM_MMFF94_ENERGY>
21.1611

>  <PUBCHEM_FEATURE_SELFOVERLAP>
45.82

>  <PUBCHEM_SHAPE_FINGERPRINT>
11578080 2 17984388924466825000
124424 183 13686303465081884254
12553582 1 18411975828143526921
13221675 6 18412827958434911515
14576447 43 18340199790755604503
15375462 189 18409729534599286731
15775835 57 18334861610268107463
16945 1 18336255791022852248
18186145 218 18334289916019968276
20645476 183 18412826893626043687
21634736 98 18269552921791453590
22112679 90 18270106921196644770
232386 152 17775000210831931829
23388829 49 18336548222809405032
23402539 116 18410292511045120260
23402655 69 18335140847572397877
23559900 14 18339087094691280412
25 1 18186239536893781042
2748010 2 16032970615544397136
2871803 45 18192422198631418127
3312278 4 18412265042788448683
34934 24 18412260597376354768
528886 8 18407760339401988560
63268167 104 18335700520365318296
7364860 26 18058442273837337785
90525 40 18128818534492151421

>  <PUBCHEM_SHAPE_MULTIPOLES>
309.44
6.2
2.12
1.03
0.36
0.09
-0.23
0.5
-1.22
-0.4
0.18
0.26
0.17
-0.87

>  <PUBCHEM_SHAPE_SELFOVERLAP>
658.378

>  <PUBCHEM_SHAPE_VOLUME>
173.9

>  <PUBCHEM_COORDINATE_TYPE>
2
5
10

$$$$
3081936
 OpenBabel12092211553D

 27 28  0  0  1  0  0  0  0  0999 V2000
    4.3479    0.5117   -0.8201 Cl  0  0  0  0  0  0  0  0  0  0  0  0
   -3.6583    2.6027   -1.1079 O   0  0  0  0  0  0  0  0  0  0  0  0
   -2.0816    1.4749   -2.2840 O   0  0  0  0  0  0  0  0  0  0  0  0
    1.4891    1.9059   -0.3135 N   0  0  0  0  0  0  0  0  0  0  0  0
   -2.4678   -0.7208   -0.6915 N   0  0  0  0  0  0  0  0  0  0  0  0
   -0.4072    1.0903    0.5027 C   0  0  0  0  0  0  0  0  0  0  0  0
   -1.8055    0.9898    0.9672 C   0  0  0  0  0  0  0  0  0  0  0  0
    0.5575    0.0444    0.4891 C   0  0  0  0  0  0  0  0  0  0  0  0
   -2.8152    0.5885   -0.1331 C   0  0  1  0  0  0  0  0  0  0  0  0
    1.7382    0.5824   -0.0274 C   0  0  0  0  0  0  0  0  0  0  0  0
    0.1953    2.2221    0.0036 C   0  0  0  0  0  0  0  0  0  0  0  0
    0.5395   -1.3127    0.8678 C   0  0  0  0  0  0  0  0  0  0  0  0
    2.9065   -0.1717   -0.1847 C   0  0  0  0  0  0  0  0  0  0  0  0
    1.7006   -2.0794    0.7161 C   0  0  0  0  0  0  0  0  0  0  0  0
   -2.7842    1.5776   -1.2862 C   0  0  0  0  0  0  0  0  0  0  0  0
    2.8648   -1.5156    0.1977 C   0  0  0  0  0  0  0  0  0  0  0  0
   -2.1096    1.9553    1.3946 H   0  0  0  0  0  0  0  0  0  0  0  0
   -1.8588    0.2696    1.7955 H   0  0  0  0  0  0  0  0  0  0  0  0
   -3.8335    0.5385    0.2702 H   0  0  0  0  0  0  0  0  0  0  0  0
   -0.1789    3.2239   -0.1557 H   0  0  0  0  0  0  0  0  0  0  0  0
    2.1643    2.5499   -0.7016 H   0  0  0  0  0  0  0  0  0  0  0  0
   -0.3558   -1.7691    1.2795 H   0  0  0  0  0  0  0  0  0  0  0  0
    1.6927   -3.1263    1.0079 H   0  0  0  0  0  0  0  0  0  0  0  0
    3.7486   -2.1417    0.0947 H   0  0  0  0  0  0  0  0  0  0  0  0
   -3.1877   -1.0120   -1.3522 H   0  0  0  0  0  0  0  0  0  0  0  0
   -2.4671   -1.4182    0.0520 H   0  0  0  0  0  0  0  0  0  0  0  0
   -3.6388    3.2340   -1.8585 H   0  0  0  0  0  0  0  0  0  0  0  0
  1 13  1  0  0  0  0
  2 15  1  0  0  0  0
  2 27  1  0  0  0  0
  3 15  2  0  0  0  0
  4 10  1  0  0  0  0
  4 11  1  0  0  0  0
  4 21  1  0  0  0  0
  5  9  1  0  0  0  0
  5 25  1  0  0  0  0
  5 26  1  0  0  0  0
  6  7  1  0  0  0  0
  6  8  1  0  0  0  0
  6 11  2  0  0  0  0
  7  9  1  0  0  0  0
  7 17  1  0  0  0  0
  7 18  1  0  0  0  0
  8 10  2  0  0  0  0
  8 12  1  0  0  0  0
  9 15  1  0  0  0  0
  9 19  1  1  0  0  0
 10 13  1  0  0  0  0
 11 20  1  0  0  0  0
 12 14  2  0  0  0  0
 12 22  1  0  0  0  0
 13 16  2  0  0  0  0
 14 16  1  0  0  0  0
 14 23  1  0  0  0  0
 16 24  1  0  0  0  0
M  END
>  <PUBCHEM_COMPOUND_CID>
3081936

>  <PUBCHEM_CONFORMER_RMSD>
0.6

>  <PUBCHEM_CONFORMER_DIVERSEORDER>
1
16
18
12
6
14
13
15
5
9
11
7
3
17
8
4
2
10

>  <PUBCHEM_MMFF94_PARTIAL_CHARGES>
23
1 -0.18
10 -0.15
11 -0.3
12 -0.15
13 0.18
14 -0.15
15 0.66
16 -0.15
2 -0.65
20 0.15
21 0.27
22 0.15
23 0.15
24 0.15
25 0.36
26 0.36
27 0.5
3 -0.57
4 0.03
5 -0.99
6 -0.18
7 0.18
9 0.33

>  <PUBCHEM_EFFECTIVE_ROTOR_COUNT>
3

>  <PUBCHEM_PHARMACOPHORE_FEATURES>
9
1 2 acceptor
1 3 acceptor
1 4 cation
1 4 donor
1 5 cation
1 5 donor
3 2 3 15 anion
5 4 6 8 10 11 rings
6 8 10 12 13 14 16 rings

>  <PUBCHEM_HEAVY_ATOM_COUNT>
16

>  <PUBCHEM_ATOM_DEF_STEREO_COUNT>
1

>  <PUBCHEM_ATOM_UDEF_STEREO_COUNT>
0

>  <PUBCHEM_BOND_DEF_STEREO_COUNT>
0

>  <PUBCHEM_BOND_UDEF_STEREO_COUNT>
0

>  <PUBCHEM_ISOTOPIC_ATOM_COUNT>
0

>  <PUBCHEM_COMPONENT_COUNT>
1

>  <PUBCHEM_CACTVS_TAUTO_COUNT>
1

>  <PUBCHEM_CONFORMER_ID>
002F06D000000001

>  <PUBCHEM_MMFF94_ENERGY>
21.1611

>  <PUBCHEM_FEATURE_SELFOVERLAP>
45.82

>  <PUBCHEM_SHAPE_FINGERPRINT>
11578080 2 17984388924466825000
124424 183 13686303465081884254
12553582 1 18411975828143526921
13221675 6 18412827958434911515
14576447 43 18340199790755604503
15375462 189 18409729534599286731
15775835 57 18334861610268107463
16945 1 18336255791022852248
18186145 218 18334289916019968276
20645476 183 18412826893626043687
21634736 98 18269552921791453590
22112679 90 18270106921196644770
232386 152 17775000210831931829
23388829 49 18336548222809405032
23402539 116 18410292511045120260
23402655 69 18335140847572397877
23559900 14 18339087094691280412
25 1 18186239536893781042
2748010 2 16032970615544397136
2871803 45 18192422198631418127
3312278 4 18412265042788448683
34934 24 18412260597376354768
528886 8 18407760339401988560
63268167 104 18335700520365318296
7364860 26 18058442273837337785
90525 40 18128818534492151421

>  <PUBCHEM_SHAPE_MULTIPOLES>
309.44
6.2
2.12
1.03
0.36
0.09
-0.23
0.5
-1.22
-0.4
0.18
0.26
0.17
-0.87

>  <PUBCHEM_SHAPE_SELFOVERLAP>
658.378

>  <PUBCHEM_SHAPE_VOLUME>
173.9

>  <PUBCHEM_COORDINATE_TYPE>
2
5
10

$$$$
3081936
 OpenBabel12092211553D

 27 28  0  0  1  0  0  0  0  0999 V2000
    4.3479    0.5117   -0.8201 Cl  0  0  0  0  0  0  0  0  0  0  0  0
   -1.5078   -0.1305   -1.4535 O   0  0  0  0  0  0  0  0  0  0  0  0
   -3.7041    0.0151   -1.9978 O   0  0  0  0  0  0  0  0  0  0  0  0
    1.4891    1.9059   -0.3135 N   0  0  0  0  0  0  0  0  0  0  0  0
   -4.2128    1.1902    0.4373 N   0  0  0  0  0  0  0  0  0  0  0  0
   -0.4072    1.0903    0.5027 C   0  0  0  0  0  0  0  0  0  0  0  0
   -1.8055    0.9898    0.9672 C   0  0  0  0  0  0  0  0  0  0  0  0
    0.5575    0.0444    0.4891 C   0  0  0  0  0  0  0  0  0  0  0  0
   -2.8613    1.3162   -0.1145 C   0  0  1  0  0  0  0  0  0  0  0  0
    1.7382    0.5824   -0.0274 C   0  0  0  0  0  0  0  0  0  0  0  0
    0.1953    2.2221    0.0036 C   0  0  0  0  0  0  0  0  0  0  0  0
    0.5395   -1.3127    0.8678 C   0  0  0  0  0  0  0  0  0  0  0  0
    2.9065   -0.1717   -0.1847 C   0  0  0  0  0  0  0  0  0  0  0  0
    1.7006   -2.0794    0.7161 C   0  0  0  0  0  0  0  0  0  0  0  0
   -2.7703    0.3396   -1.2750 C   0  0  0  0  0  0  0  0  0  0  0  0
    2.8648   -1.5156    0.1977 C   0  0  0  0  0  0  0  0  0  0  0  0
   -1.9477    1.6682    1.8198 H   0  0  0  0  0  0  0  0  0  0  0  0
   -1.9824   -0.0209    1.3606 H   0  0  0  0  0  0  0  0  0  0  0  0
   -2.7310    2.3370   -0.4926 H   0  0  0  0  0  0  0  0  0  0  0  0
   -0.1789    3.2239   -0.1557 H   0  0  0  0  0  0  0  0  0  0  0  0
    2.1643    2.5499   -0.7016 H   0  0  0  0  0  0  0  0  0  0  0  0
   -0.3558   -1.7691    1.2795 H   0  0  0  0  0  0  0  0  0  0  0  0
    1.6927   -3.1263    1.0079 H   0  0  0  0  0  0  0  0  0  0  0  0
    3.7486   -2.1417    0.0947 H   0  0  0  0  0  0  0  0  0  0  0  0
   -4.8949    1.4909   -0.2583 H   0  0  0  0  0  0  0  0  0  0  0  0
   -4.3174    1.8239    1.2289 H   0  0  0  0  0  0  0  0  0  0  0  0
   -1.4539   -0.7548   -2.2082 H   0  0  0  0  0  0  0  0  0  0  0  0
  1 13  1  0  0  0  0
  2 15  1  0  0  0  0
  2 27  1  0  0  0  0
  3 15  2  0  0  0  0
  4 10  1  0  0  0  0
  4 11  1  0  0  0  0
  4 21  1  0  0  0  0
  5  9  1  0  0  0  0
  5 25  1  0  0  0  0
  5 26  1  0  0  0  0
  6  7  1  0  0  0  0
  6  8  1  0  0  0  0
  6 11  2  0  0  0  0
  7  9  1  0  0  0  0
  7 17  1  0  0  0  0
  7 18  1  0  0  0  0
  8 10  2  0  0  0  0
  8 12  1  0  0  0  0
  9 15  1  0  0  0  0
  9 19  1  6  0  0  0
 10 13  1  0  0  0  0
 11 20  1  0  0  0  0
 12 14  2  0  0  0  0
 12 22  1  0  0  0  0
 13 16  2  0  0  0  0
 14 16  1  0  0  0  0
 14 23  1  0  0  0  0
 16 24  1  0  0  0  0
M  END
>  <PUBCHEM_COMPOUND_CID>
3081936

>  <PUBCHEM_CONFORMER_RMSD>
0.6

>  <PUBCHEM_CONFORMER_DIVERSEORDER>
1
16
18
12
6
14
13
15
5
9
11
7
3
17
8
4
2
10

>  <PUBCHEM_MMFF94_PARTIAL_CHARGES>
23
1 -0.18
10 -0.15
11 -0.3
12 -0.15
13 0.18
14 -0.15
15 0.66
16 -0.15
2 -0.65
20 0.15
21 0.27
22 0.15
23 0.15
24 0.15
25 0.36
26 0.36
27 0.5
3 -0.57
4 0.03
5 -0.99
6 -0.18
7 0.18
9 0.33

>  <PUBCHEM_EFFECTIVE_ROTOR_COUNT>
3

>  <PUBCHEM_PHARMACOPHORE_FEATURES>
9
1 2 acceptor
1 3 acceptor
1 4 cation
1 4 donor
1 5 cation
1 5 donor
3 2 3 15 anion
5 4 6 8 10 11 rings
6 8 10 12 13 14 16 rings

>  <PUBCHEM_HEAVY_ATOM_COUNT>
16

>  <PUBCHEM_ATOM_DEF_STEREO_COUNT>
1

>  <PUBCHEM_ATOM_UDEF_STEREO_COUNT>
0

>  <PUBCHEM_BOND_DEF_STEREO_COUNT>
0

>  <PUBCHEM_BOND_UDEF_STEREO_COUNT>
0

>  <PUBCHEM_ISOTOPIC_ATOM_COUNT>
0

>  <PUBCHEM_COMPONENT_COUNT>
1

>  <PUBCHEM_CACTVS_TAUTO_COUNT>
1

>  <PUBCHEM_CONFORMER_ID>
002F06D000000001

>  <PUBCHEM_MMFF94_ENERGY>
21.1611

>  <PUBCHEM_FEATURE_SELFOVERLAP>
45.82

>  <PUBCHEM_SHAPE_FINGERPRINT>
11578080 2 17984388924466825000
124424 183 13686303465081884254
12553582 1 18411975828143526921
13221675 6 18412827958434911515
14576447 43 18340199790755604503
15375462 189 18409729534599286731
15775835 57 18334861610268107463
16945 1 18336255791022852248
18186145 218 18334289916019968276
20645476 183 18412826893626043687
21634736 98 18269552921791453590
22112679 90 18270106921196644770
232386 152 17775000210831931829
23388829 49 18336548222809405032
23402539 116 18410292511045120260
23402655 69 18335140847572397877
23559900 14 18339087094691280412
25 1 18186239536893781042
2748010 2 16032970615544397136
2871803 45 18192422198631418127
3312278 4 18412265042788448683
34934 24 18412260597376354768
528886 8 18407760339401988560
63268167 104 18335700520365318296
7364860 26 18058442273837337785
90525 40 18128818534492151421

>  <PUBCHEM_SHAPE_MULTIPOLES>
309.44
6.2
2.12
1.03
0.36
0.09
-0.23
0.5
-1.22
-0.4
0.18
0.26
0.17
-0.87

>  <PUBCHEM_SHAPE_SELFOVERLAP>
658.378

>  <PUBCHEM_SHAPE_VOLUME>
173.9

>  <PUBCHEM_COORDINATE_TYPE>
2
5
10

$$$$
3081936
 OpenBabel12092211553D

 27 28  0  0  1  0  0  0  0  0999 V2000
    4.3479    0.5117   -0.8201 Cl  0  0  0  0  0  0  0  0  0  0  0  0
   -0.2912    2.9745    2.4820 O   0  0  0  0  0  0  0  0  0  0  0  0
   -2.3271    3.5844    3.2722 O   0  0  0  0  0  0  0  0  0  0  0  0
    1.4891    1.9059   -0.3135 N   0  0  0  0  0  0  0  0  0  0  0  0
   -3.4156    1.1792    2.8348 N   0  0  0  0  0  0  0  0  0  0  0  0
   -0.4072    1.0903    0.5027 C   0  0  0  0  0  0  0  0  0  0  0  0
   -1.8055    0.9898    0.9672 C   0  0  0  0  0  0  0  0  0  0  0  0
    0.5575    0.0444    0.4891 C   0  0  0  0  0  0  0  0  0  0  0  0
   -2.0025    1.3043    2.4684 C   0  0  1  0  0  0  0  0  0  0  0  0
    1.7382    0.5824   -0.0274 C   0  0  0  0  0  0  0  0  0  0  0  0
    0.1953    2.2221    0.0036 C   0  0  0  0  0  0  0  0  0  0  0  0
    0.5395   -1.3127    0.8678 C   0  0  0  0  0  0  0  0  0  0  0  0
    2.9065   -0.1717   -0.1847 C   0  0  0  0  0  0  0  0  0  0  0  0
    1.7006   -2.0794    0.7161 C   0  0  0  0  0  0  0  0  0  0  0  0
   -1.5946    2.7340    2.7822 C   0  0  0  0  0  0  0  0  0  0  0  0
    2.8648   -1.5156    0.1977 C   0  0  0  0  0  0  0  0  0  0  0  0
   -2.1768   -0.0242    0.7641 H   0  0  0  0  0  0  0  0  0  0  0  0
   -2.4338    1.6610    0.3653 H   0  0  0  0  0  0  0  0  0  0  0  0
   -1.4168    0.6184    3.0917 H   0  0  0  0  0  0  0  0  0  0  0  0
   -0.1789    3.2239   -0.1557 H   0  0  0  0  0  0  0  0  0  0  0  0
    2.1643    2.5499   -0.7016 H   0  0  0  0  0  0  0  0  0  0  0  0
   -0.3558   -1.7691    1.2795 H   0  0  0  0  0  0  0  0  0  0  0  0
    1.6927   -3.1263    1.0079 H   0  0  0  0  0  0  0  0  0  0  0  0
    3.7486   -2.1417    0.0947 H   0  0  0  0  0  0  0  0  0  0  0  0
   -3.5196    1.3036    3.8414 H   0  0  0  0  0  0  0  0  0  0  0  0
   -3.7370    0.2333    2.6317 H   0  0  0  0  0  0  0  0  0  0  0  0
   -0.0320    3.8967    2.6932 H   0  0  0  0  0  0  0  0  0  0  0  0
  1 13  1  0  0  0  0
  2 15  1  0  0  0  0
  2 27  1  0  0  0  0
  3 15  2  0  0  0  0
  4 10  1  0  0  0  0
  4 11  1  0  0  0  0
  4 21  1  0  0  0  0
  5  9  1  0  0  0  0
  5 25  1  0  0  0  0
  5 26  1  0  0  0  0
  6  7  1  0  0  0  0
  6  8  1  0  0  0  0
  6 11  2  0  0  0  0
  7  9  1  0  0  0  0
  7 17  1  0  0  0  0
  7 18  1  0  0  0  0
  8 10  2  0  0  0  0
  8 12  1  0  0  0  0
  9 15  1  0  0  0  0
  9 19  1  1  0  0  0
 10 13  1  0  0  0  0
 11 20  1  0  0  0  0
 12 14  2  0  0  0  0
 12 22  1  0  0  0  0
 13 16  2  0  0  0  0
 14 16  1  0  0  0  0
 14 23  1  0  0  0  0
 16 24  1  0  0  0  0
M  END
>  <PUBCHEM_COMPOUND_CID>
3081936

>  <PUBCHEM_CONFORMER_RMSD>
0.6

>  <PUBCHEM_CONFORMER_DIVERSEORDER>
1
16
18
12
6
14
13
15
5
9
11
7
3
17
8
4
2
10

>  <PUBCHEM_MMFF94_PARTIAL_CHARGES>
23
1 -0.18
10 -0.15
11 -0.3
12 -0.15
13 0.18
14 -0.15
15 0.66
16 -0.15
2 -0.65
20 0.15
21 0.27
22 0.15
23 0.15
24 0.15
25 0.36
26 0.36
27 0.5
3 -0.57
4 0.03
5 -0.99
6 -0.18
7 0.18
9 0.33

>  <PUBCHEM_EFFECTIVE_ROTOR_COUNT>
3

>  <PUBCHEM_PHARMACOPHORE_FEATURES>
9
1 2 acceptor
1 3 acceptor
1 4 cation
1 4 donor
1 5 cation
1 5 donor
3 2 3 15 anion
5 4 6 8 10 11 rings
6 8 10 12 13 14 16 rings

>  <PUBCHEM_HEAVY_ATOM_COUNT>
16

>  <PUBCHEM_ATOM_DEF_STEREO_COUNT>
1

>  <PUBCHEM_ATOM_UDEF_STEREO_COUNT>
0

>  <PUBCHEM_BOND_DEF_STEREO_COUNT>
0

>  <PUBCHEM_BOND_UDEF_STEREO_COUNT>
0

>  <PUBCHEM_ISOTOPIC_ATOM_COUNT>
0

>  <PUBCHEM_COMPONENT_COUNT>
1

>  <PUBCHEM_CACTVS_TAUTO_COUNT>
1

>  <PUBCHEM_CONFORMER_ID>
002F06D000000001

>  <PUBCHEM_MMFF94_ENERGY>
21.1611

>  <PUBCHEM_FEATURE_SELFOVERLAP>
45.82

>  <PUBCHEM_SHAPE_FINGERPRINT>
11578080 2 17984388924466825000
124424 183 13686303465081884254
12553582 1 18411975828143526921
13221675 6 18412827958434911515
14576447 43 18340199790755604503
15375462 189 18409729534599286731
15775835 57 18334861610268107463
16945 1 18336255791022852248
18186145 218 18334289916019968276
20645476 183 18412826893626043687
21634736 98 18269552921791453590
22112679 90 18270106921196644770
232386 152 17775000210831931829
23388829 49 18336548222809405032
23402539 116 18410292511045120260
23402655 69 18335140847572397877
23559900 14 18339087094691280412
25 1 18186239536893781042
2748010 2 16032970615544397136
2871803 45 18192422198631418127
3312278 4 18412265042788448683
34934 24 18412260597376354768
528886 8 18407760339401988560
63268167 104 18335700520365318296
7364860 26 18058442273837337785
90525 40 18128818534492151421

>  <PUBCHEM_SHAPE_MULTIPOLES>
309.44
6.2
2.12
1.03
0.36
0.09
-0.23
0.5
-1.22
-0.4
0.18
0.26
0.17
-0.87

>  <PUBCHEM_SHAPE_SELFOVERLAP>
658.378

>  <PUBCHEM_SHAPE_VOLUME>
173.9

>  <PUBCHEM_COORDINATE_TYPE>
2
5
10

$$$$
3081936
 OpenBabel12092211553D

 27 28  0  0  1  0  0  0  0  0999 V2000
    4.3479    0.5117   -0.8201 Cl  0  0  0  0  0  0  0  0  0  0  0  0
   -1.5481    2.4933    4.3826 O   0  0  0  0  0  0  0  0  0  0  0  0
   -0.3491    0.8570    3.3696 O   0  0  0  0  0  0  0  0  0  0  0  0
    1.4891    1.9059   -0.3135 N   0  0  0  0  0  0  0  0  0  0  0  0
   -1.9492    3.3325    1.7466 N   0  0  0  0  0  0  0  0  0  0  0  0
   -0.4072    1.0903    0.5027 C   0  0  0  0  0  0  0  0  0  0  0  0
   -1.8055    0.9898    0.9672 C   0  0  0  0  0  0  0  0  0  0  0  0
    0.5575    0.0444    0.4891 C   0  0  0  0  0  0  0  0  0  0  0  0
   -2.1575    1.9361    2.1385 C   0  0  1  0  0  0  0  0  0  0  0  0
    1.7382    0.5824   -0.0274 C   0  0  0  0  0  0  0  0  0  0  0  0
    0.1953    2.2221    0.0036 C   0  0  0  0  0  0  0  0  0  0  0  0
    0.5395   -1.3127    0.8678 C   0  0  0  0  0  0  0  0  0  0  0  0
    2.9065   -0.1717   -0.1847 C   0  0  0  0  0  0  0  0  0  0  0  0
    1.7006   -2.0794    0.7161 C   0  0  0  0  0  0  0  0  0  0  0  0
   -1.2565    1.6788    3.3347 C   0  0  0  0  0  0  0  0  0  0  0  0
    2.8648   -1.5156    0.1977 C   0  0  0  0  0  0  0  0  0  0  0  0
   -2.0059   -0.0462    1.2738 H   0  0  0  0  0  0  0  0  0  0  0  0
   -2.4804    1.1841    0.1220 H   0  0  0  0  0  0  0  0  0  0  0  0
   -3.2033    1.8097    2.4425 H   0  0  0  0  0  0  0  0  0  0  0  0
   -0.1789    3.2239   -0.1557 H   0  0  0  0  0  0  0  0  0  0  0  0
    2.1643    2.5499   -0.7016 H   0  0  0  0  0  0  0  0  0  0  0  0
   -0.3558   -1.7691    1.2795 H   0  0  0  0  0  0  0  0  0  0  0  0
    1.6927   -3.1263    1.0079 H   0  0  0  0  0  0  0  0  0  0  0  0
    3.7486   -2.1417    0.0947 H   0  0  0  0  0  0  0  0  0  0  0  0
   -2.2661    3.9480    2.4951 H   0  0  0  0  0  0  0  0  0  0  0  0
   -2.5300    3.5487    0.9372 H   0  0  0  0  0  0  0  0  0  0  0  0
   -0.9588    2.3274    5.1491 H   0  0  0  0  0  0  0  0  0  0  0  0
  1 13  1  0  0  0  0
  2 15  1  0  0  0  0
  2 27  1  0  0  0  0
  3 15  2  0  0  0  0
  4 10  1  0  0  0  0
  4 11  1  0  0  0  0
  4 21  1  0  0  0  0
  5  9  1  0  0  0  0
  5 25  1  0  0  0  0
  5 26  1  0  0  0  0
  6  7  1  0  0  0  0
  6  8  1  0  0  0  0
  6 11  2  0  0  0  0
  7  9  1  0  0  0  0
  7 17  1  0  0  0  0
  7 18  1  0  0  0  0
  8 10  2  0  0  0  0
  8 12  1  0  0  0  0
  9 15  1  0  0  0  0
  9 19  1  1  0  0  0
 10 13  1  0  0  0  0
 11 20  1  0  0  0  0
 12 14  2  0  0  0  0
 12 22  1  0  0  0  0
 13 16  2  0  0  0  0
 14 16  1  0  0  0  0
 14 23  1  0  0  0  0
 16 24  1  0  0  0  0
M  END
>  <PUBCHEM_COMPOUND_CID>
3081936

>  <PUBCHEM_CONFORMER_RMSD>
0.6

>  <PUBCHEM_CONFORMER_DIVERSEORDER>
1
16
18
12
6
14
13
15
5
9
11
7
3
17
8
4
2
10

>  <PUBCHEM_MMFF94_PARTIAL_CHARGES>
23
1 -0.18
10 -0.15
11 -0.3
12 -0.15
13 0.18
14 -0.15
15 0.66
16 -0.15
2 -0.65
20 0.15
21 0.27
22 0.15
23 0.15
24 0.15
25 0.36
26 0.36
27 0.5
3 -0.57
4 0.03
5 -0.99
6 -0.18
7 0.18
9 0.33

>  <PUBCHEM_EFFECTIVE_ROTOR_COUNT>
3

>  <PUBCHEM_PHARMACOPHORE_FEATURES>
9
1 2 acceptor
1 3 acceptor
1 4 cation
1 4 donor
1 5 cation
1 5 donor
3 2 3 15 anion
5 4 6 8 10 11 rings
6 8 10 12 13 14 16 rings

>  <PUBCHEM_HEAVY_ATOM_COUNT>
16

>  <PUBCHEM_ATOM_DEF_STEREO_COUNT>
1

>  <PUBCHEM_ATOM_UDEF_STEREO_COUNT>
0

>  <PUBCHEM_BOND_DEF_STEREO_COUNT>
0

>  <PUBCHEM_BOND_UDEF_STEREO_COUNT>
0

>  <PUBCHEM_ISOTOPIC_ATOM_COUNT>
0

>  <PUBCHEM_COMPONENT_COUNT>
1

>  <PUBCHEM_CACTVS_TAUTO_COUNT>
1

>  <PUBCHEM_CONFORMER_ID>
002F06D000000001

>  <PUBCHEM_MMFF94_ENERGY>
21.1611

>  <PUBCHEM_FEATURE_SELFOVERLAP>
45.82

>  <PUBCHEM_SHAPE_FINGERPRINT>
11578080 2 17984388924466825000
124424 183 13686303465081884254
12553582 1 18411975828143526921
13221675 6 18412827958434911515
14576447 43 18340199790755604503
15375462 189 18409729534599286731
15775835 57 18334861610268107463
16945 1 18336255791022852248
18186145 218 18334289916019968276
20645476 183 18412826893626043687
21634736 98 18269552921791453590
22112679 90 18270106921196644770
232386 152 17775000210831931829
23388829 49 18336548222809405032
23402539 116 18410292511045120260
23402655 69 18335140847572397877
23559900 14 18339087094691280412
25 1 18186239536893781042
2748010 2 16032970615544397136
2871803 45 18192422198631418127
3312278 4 18412265042788448683
34934 24 18412260597376354768
528886 8 18407760339401988560
63268167 104 18335700520365318296
7364860 26 18058442273837337785
90525 40 18128818534492151421

>  <PUBCHEM_SHAPE_MULTIPOLES>
309.44
6.2
2.12
1.03
0.36
0.09
-0.23
0.5
-1.22
-0.4
0.18
0.26
0.17
-0.87

>  <PUBCHEM_SHAPE_SELFOVERLAP>
658.378

>  <PUBCHEM_SHAPE_VOLUME>
173.9

>  <PUBCHEM_COORDINATE_TYPE>
2
5
10

$$$$
3081936
 OpenBabel12092211553D

 27 28  0  0  1  0  0  0  0  0999 V2000
    4.3479    0.5117   -0.8201 Cl  0  0  0  0  0  0  0  0  0  0  0  0
   -1.2544    2.9471    2.7190 O   0  0  0  0  0  0  0  0  0  0  0  0
   -2.0192    4.6129    1.3842 O   0  0  0  0  0  0  0  0  0  0  0  0
    1.4891    1.9059   -0.3135 N   0  0  0  0  0  0  0  0  0  0  0  0
   -2.6664    2.7535   -0.5376 N   0  0  0  0  0  0  0  0  0  0  0  0
   -0.4072    1.0903    0.5027 C   0  0  0  0  0  0  0  0  0  0  0  0
   -1.8055    0.9898    0.9672 C   0  0  0  0  0  0  0  0  0  0  0  0
    0.5575    0.0444    0.4891 C   0  0  0  0  0  0  0  0  0  0  0  0
   -2.6100    2.3058    0.8564 C   0  0  1  0  0  0  0  0  0  0  0  0
    1.7382    0.5824   -0.0274 C   0  0  0  0  0  0  0  0  0  0  0  0
    0.1953    2.2221    0.0036 C   0  0  0  0  0  0  0  0  0  0  0  0
    0.5395   -1.3127    0.8678 C   0  0  0  0  0  0  0  0  0  0  0  0
    2.9065   -0.1717   -0.1847 C   0  0  0  0  0  0  0  0  0  0  0  0
    1.7006   -2.0794    0.7161 C   0  0  0  0  0  0  0  0  0  0  0  0
   -1.9424    3.4190    1.6463 C   0  0  0  0  0  0  0  0  0  0  0  0
    2.8648   -1.5156    0.1977 C   0  0  0  0  0  0  0  0  0  0  0  0
   -1.8104    0.6565    2.0142 H   0  0  0  0  0  0  0  0  0  0  0  0
   -2.3164    0.1978    0.4022 H   0  0  0  0  0  0  0  0  0  0  0  0
   -3.6344    2.1698    1.2225 H   0  0  0  0  0  0  0  0  0  0  0  0
   -0.1789    3.2239   -0.1557 H   0  0  0  0  0  0  0  0  0  0  0  0
    2.1643    2.5499   -0.7016 H   0  0  0  0  0  0  0  0  0  0  0  0
   -0.3558   -1.7691    1.2795 H   0  0  0  0  0  0  0  0  0  0  0  0
    1.6927   -3.1263    1.0079 H   0  0  0  0  0  0  0  0  0  0  0  0
    3.7486   -2.1417    0.0947 H   0  0  0  0  0  0  0  0  0  0  0  0
   -3.2703    3.5719   -0.6091 H   0  0  0  0  0  0  0  0  0  0  0  0
   -3.1009    2.0302   -1.1097 H   0  0  0  0  0  0  0  0  0  0  0  0
   -0.8316    3.6707    3.2288 H   0  0  0  0  0  0  0  0  0  0  0  0
  1 13  1  0  0  0  0
  2 15  1  0  0  0  0
  2 27  1  0  0  0  0
  3 15  2  0  0  0  0
  4 10  1  0  0  0  0
  4 11  1  0  0  0  0
  4 21  1  0  0  0  0
  5  9  1  0  0  0  0
  5 25  1  0  0  0  0
  5 26  1  0  0  0  0
  6  7  1  0  0  0  0
  6  8  1  0  0  0  0
  6 11  2  0  0  0  0
  7  9  1  0  0  0  0
  7 17  1  0  0  0  0
  7 18  1  0  0  0  0
  8 10  2  0  0  0  0
  8 12  1  0  0  0  0
  9 15  1  0  0  0  0
  9 19  1  1  0  0  0
 10 13  1  0  0  0  0
 11 20  1  0  0  0  0
 12 14  2  0  0  0  0
 12 22  1  0  0  0  0
 13 16  2  0  0  0  0
 14 16  1  0  0  0  0
 14 23  1  0  0  0  0
 16 24  1  0  0  0  0
M  END
>  <PUBCHEM_COMPOUND_CID>
3081936

>  <PUBCHEM_CONFORMER_RMSD>
0.6

>  <PUBCHEM_CONFORMER_DIVERSEORDER>
1
16
18
12
6
14
13
15
5
9
11
7
3
17
8
4
2
10

>  <PUBCHEM_MMFF94_PARTIAL_CHARGES>
23
1 -0.18
10 -0.15
11 -0.3
12 -0.15
13 0.18
14 -0.15
15 0.66
16 -0.15
2 -0.65
20 0.15
21 0.27
22 0.15
23 0.15
24 0.15
25 0.36
26 0.36
27 0.5
3 -0.57
4 0.03
5 -0.99
6 -0.18
7 0.18
9 0.33

>  <PUBCHEM_EFFECTIVE_ROTOR_COUNT>
3

>  <PUBCHEM_PHARMACOPHORE_FEATURES>
9
1 2 acceptor
1 3 acceptor
1 4 cation
1 4 donor
1 5 cation
1 5 donor
3 2 3 15 anion
5 4 6 8 10 11 rings
6 8 10 12 13 14 16 rings

>  <PUBCHEM_HEAVY_ATOM_COUNT>
16

>  <PUBCHEM_ATOM_DEF_STEREO_COUNT>
1

>  <PUBCHEM_ATOM_UDEF_STEREO_COUNT>
0

>  <PUBCHEM_BOND_DEF_STEREO_COUNT>
0

>  <PUBCHEM_BOND_UDEF_STEREO_COUNT>
0

>  <PUBCHEM_ISOTOPIC_ATOM_COUNT>
0

>  <PUBCHEM_COMPONENT_COUNT>
1

>  <PUBCHEM_CACTVS_TAUTO_COUNT>
1

>  <PUBCHEM_CONFORMER_ID>
002F06D000000001

>  <PUBCHEM_MMFF94_ENERGY>
21.1611

>  <PUBCHEM_FEATURE_SELFOVERLAP>
45.82

>  <PUBCHEM_SHAPE_FINGERPRINT>
11578080 2 17984388924466825000
124424 183 13686303465081884254
12553582 1 18411975828143526921
13221675 6 18412827958434911515
14576447 43 18340199790755604503
15375462 189 18409729534599286731
15775835 57 18334861610268107463
16945 1 18336255791022852248
18186145 218 18334289916019968276
20645476 183 18412826893626043687
21634736 98 18269552921791453590
22112679 90 18270106921196644770
232386 152 17775000210831931829
23388829 49 18336548222809405032
23402539 116 18410292511045120260
23402655 69 18335140847572397877
23559900 14 18339087094691280412
25 1 18186239536893781042
2748010 2 16032970615544397136
2871803 45 18192422198631418127
3312278 4 18412265042788448683
34934 24 18412260597376354768
528886 8 18407760339401988560
63268167 104 18335700520365318296
7364860 26 18058442273837337785
90525 40 18128818534492151421

>  <PUBCHEM_SHAPE_MULTIPOLES>
309.44
6.2
2.12
1.03
0.36
0.09
-0.23
0.5
-1.22
-0.4
0.18
0.26
0.17
-0.87

>  <PUBCHEM_SHAPE_SELFOVERLAP>
658.378

>  <PUBCHEM_SHAPE_VOLUME>
173.9

>  <PUBCHEM_COORDINATE_TYPE>
2
5
10

$$$$
3081936
 OpenBabel12092211553D

 27 28  0  0  1  0  0  0  0  0999 V2000
    4.3479    0.5117   -0.8201 Cl  0  0  0  0  0  0  0  0  0  0  0  0
   -4.6388   -1.3173    0.5619 O   0  0  0  0  0  0  0  0  0  0  0  0
   -4.3551    0.3161    2.1088 O   0  0  0  0  0  0  0  0  0  0  0  0
    1.4891    1.9059   -0.3135 N   0  0  0  0  0  0  0  0  0  0  0  0
   -2.4420   -0.7893   -0.6284 N   0  0  0  0  0  0  0  0  0  0  0  0
   -0.4072    1.0903    0.5027 C   0  0  0  0  0  0  0  0  0  0  0  0
   -1.8055    0.9898    0.9672 C   0  0  0  0  0  0  0  0  0  0  0  0
    0.5575    0.0444    0.4891 C   0  0  0  0  0  0  0  0  0  0  0  0
   -2.4379   -0.4098    0.7868 C   0  0  1  0  0  0  0  0  0  0  0  0
    1.7382    0.5824   -0.0274 C   0  0  0  0  0  0  0  0  0  0  0  0
    0.1953    2.2221    0.0036 C   0  0  0  0  0  0  0  0  0  0  0  0
    0.5395   -1.3127    0.8678 C   0  0  0  0  0  0  0  0  0  0  0  0
    2.9065   -0.1717   -0.1847 C   0  0  0  0  0  0  0  0  0  0  0  0
    1.7006   -2.0794    0.7161 C   0  0  0  0  0  0  0  0  0  0  0  0
   -3.8867   -0.4147    1.2448 C   0  0  0  0  0  0  0  0  0  0  0  0
    2.8648   -1.5156    0.1977 C   0  0  0  0  0  0  0  0  0  0  0  0
   -2.4146    1.7281    0.4274 H   0  0  0  0  0  0  0  0  0  0  0  0
   -1.8552    1.2821    2.0253 H   0  0  0  0  0  0  0  0  0  0  0  0
   -1.8801   -1.1665    1.3509 H   0  0  0  0  0  0  0  0  0  0  0  0
   -0.1789    3.2239   -0.1557 H   0  0  0  0  0  0  0  0  0  0  0  0
    2.1643    2.5499   -0.7016 H   0  0  0  0  0  0  0  0  0  0  0  0
   -0.3558   -1.7691    1.2795 H   0  0  0  0  0  0  0  0  0  0  0  0
    1.6927   -3.1263    1.0079 H   0  0  0  0  0  0  0  0  0  0  0  0
    3.7486   -2.1417    0.0947 H   0  0  0  0  0  0  0  0  0  0  0  0
   -2.7806   -1.7462   -0.7243 H   0  0  0  0  0  0  0  0  0  0  0  0
   -1.4862   -0.7904   -0.9829 H   0  0  0  0  0  0  0  0  0  0  0  0
   -5.5743   -1.3109    0.8570 H   0  0  0  0  0  0  0  0  0  0  0  0
  1 13  1  0  0  0  0
  2 15  1  0  0  0  0
  2 27  1  0  0  0  0
  3 15  2  0  0  0  0
  4 10  1  0  0  0  0
  4 11  1  0  0  0  0
  4 21  1  0  0  0  0
  5  9  1  0  0  0  0
  5 25  1  0  0  0  0
  5 26  1  0  0  0  0
  6  7  1  0  0  0  0
  6  8  1  0  0  0  0
  6 11  2  0  0  0  0
  7  9  1  0  0  0  0
  7 17  1  0  0  0  0
  7 18  1  0  0  0  0
  8 10  2  0  0  0  0
  8 12  1  0  0  0  0
  9 15  1  0  0  0  0
  9 19  1  1  0  0  0
 10 13  1  0  0  0  0
 11 20  1  0  0  0  0
 12 14  2  0  0  0  0
 12 22  1  0  0  0  0
 13 16  2  0  0  0  0
 14 16  1  0  0  0  0
 14 23  1  0  0  0  0
 16 24  1  0  0  0  0
M  END
>  <PUBCHEM_COMPOUND_CID>
3081936

>  <PUBCHEM_CONFORMER_RMSD>
0.6

>  <PUBCHEM_CONFORMER_DIVERSEORDER>
1
16
18
12
6
14
13
15
5
9
11
7
3
17
8
4
2
10

>  <PUBCHEM_MMFF94_PARTIAL_CHARGES>
23
1 -0.18
10 -0.15
11 -0.3
12 -0.15
13 0.18
14 -0.15
15 0.66
16 -0.15
2 -0.65
20 0.15
21 0.27
22 0.15
23 0.15
24 0.15
25 0.36
26 0.36
27 0.5
3 -0.57
4 0.03
5 -0.99
6 -0.18
7 0.18
9 0.33

>  <PUBCHEM_EFFECTIVE_ROTOR_COUNT>
3

>  <PUBCHEM_PHARMACOPHORE_FEATURES>
9
1 2 acceptor
1 3 acceptor
1 4 cation
1 4 donor
1 5 cation
1 5 donor
3 2 3 15 anion
5 4 6 8 10 11 rings
6 8 10 12 13 14 16 rings

>  <PUBCHEM_HEAVY_ATOM_COUNT>
16

>  <PUBCHEM_ATOM_DEF_STEREO_COUNT>
1

>  <PUBCHEM_ATOM_UDEF_STEREO_COUNT>
0

>  <PUBCHEM_BOND_DEF_STEREO_COUNT>
0

>  <PUBCHEM_BOND_UDEF_STEREO_COUNT>
0

>  <PUBCHEM_ISOTOPIC_ATOM_COUNT>
0

>  <PUBCHEM_COMPONENT_COUNT>
1

>  <PUBCHEM_CACTVS_TAUTO_COUNT>
1

>  <PUBCHEM_CONFORMER_ID>
002F06D000000001

>  <PUBCHEM_MMFF94_ENERGY>
21.1611

>  <PUBCHEM_FEATURE_SELFOVERLAP>
45.82

>  <PUBCHEM_SHAPE_FINGERPRINT>
11578080 2 17984388924466825000
124424 183 13686303465081884254
12553582 1 18411975828143526921
13221675 6 18412827958434911515
14576447 43 18340199790755604503
15375462 189 18409729534599286731
15775835 57 18334861610268107463
16945 1 18336255791022852248
18186145 218 18334289916019968276
20645476 183 18412826893626043687
21634736 98 18269552921791453590
22112679 90 18270106921196644770
232386 152 17775000210831931829
23388829 49 18336548222809405032
23402539 116 18410292511045120260
23402655 69 18335140847572397877
23559900 14 18339087094691280412
25 1 18186239536893781042
2748010 2 16032970615544397136
2871803 45 18192422198631418127
3312278 4 18412265042788448683
34934 24 18412260597376354768
528886 8 18407760339401988560
63268167 104 18335700520365318296
7364860 26 18058442273837337785
90525 40 18128818534492151421

>  <PUBCHEM_SHAPE_MULTIPOLES>
309.44
6.2
2.12
1.03
0.36
0.09
-0.23
0.5
-1.22
-0.4
0.18
0.26
0.17
-0.87

>  <PUBCHEM_SHAPE_SELFOVERLAP>
658.378

>  <PUBCHEM_SHAPE_VOLUME>
173.9

>  <PUBCHEM_COORDINATE_TYPE>
2
5
10

$$$$
3081936
 OpenBabel12092211553D

 27 28  0  0  1  0  0  0  0  0999 V2000
    4.3479    0.5117   -0.8201 Cl  0  0  0  0  0  0  0  0  0  0  0  0
   -1.0254    4.0297    2.4976 O   0  0  0  0  0  0  0  0  0  0  0  0
   -1.3194    2.1561    3.7403 O   0  0  0  0  0  0  0  0  0  0  0  0
    1.4891    1.9059   -0.3135 N   0  0  0  0  0  0  0  0  0  0  0  0
   -2.3531    3.3629    0.5376 N   0  0  0  0  0  0  0  0  0  0  0  0
   -0.4072    1.0903    0.5027 C   0  0  0  0  0  0  0  0  0  0  0  0
   -1.8055    0.9898    0.9672 C   0  0  0  0  0  0  0  0  0  0  0  0
    0.5575    0.0444    0.4891 C   0  0  0  0  0  0  0  0  0  0  0  0
   -2.3798    2.3026    1.5485 C   0  0  1  0  0  0  0  0  0  0  0  0
    1.7382    0.5824   -0.0274 C   0  0  0  0  0  0  0  0  0  0  0  0
    0.1953    2.2221    0.0036 C   0  0  0  0  0  0  0  0  0  0  0  0
    0.5395   -1.3127    0.8678 C   0  0  0  0  0  0  0  0  0  0  0  0
    2.9065   -0.1717   -0.1847 C   0  0  0  0  0  0  0  0  0  0  0  0
    1.7006   -2.0794    0.7161 C   0  0  0  0  0  0  0  0  0  0  0  0
   -1.5415    2.7920    2.7175 C   0  0  0  0  0  0  0  0  0  0  0  0
    2.8648   -1.5156    0.1977 C   0  0  0  0  0  0  0  0  0  0  0  0
   -1.8718    0.2030    1.7313 H   0  0  0  0  0  0  0  0  0  0  0  0
   -2.4374    0.6485    0.1355 H   0  0  0  0  0  0  0  0  0  0  0  0
   -3.4148    2.1626    1.8821 H   0  0  0  0  0  0  0  0  0  0  0  0
   -0.1789    3.2239   -0.1557 H   0  0  0  0  0  0  0  0  0  0  0  0
    2.1643    2.5499   -0.7016 H   0  0  0  0  0  0  0  0  0  0  0  0
   -0.3558   -1.7691    1.2795 H   0  0  0  0  0  0  0  0  0  0  0  0
    1.6927   -3.1263    1.0079 H   0  0  0  0  0  0  0  0  0  0  0  0
    3.7486   -2.1417    0.0947 H   0  0  0  0  0  0  0  0  0  0  0  0
   -2.8124    4.1960    0.9045 H   0  0  0  0  0  0  0  0  0  0  0  0
   -2.8981    3.0732   -0.2736 H   0  0  0  0  0  0  0  0  0  0  0  0
   -0.4796    4.3372    3.2524 H   0  0  0  0  0  0  0  0  0  0  0  0
  1 13  1  0  0  0  0
  2 15  1  0  0  0  0
  2 27  1  0  0  0  0
  3 15  2  0  0  0  0
  4 10  1  0  0  0  0
  4 11  1  0  0  0  0
  4 21  1  0  0  0  0
  5  9  1  0  0  0  0
  5 25  1  0  0  0  0
  5 26  1  0  0  0  0
  6  7  1  0  0  0  0
  6  8  1  0  0  0  0
  6 11  2  0  0  0  0
  7  9  1  0  0  0  0
  7 17  1  0  0  0  0
  7 18  1  0  0  0  0
  8 10  2  0  0  0  0
  8 12  1  0  0  0  0
  9 15  1  0  0  0  0
  9 19  1  1  0  0  0
 10 13  1  0  0  0  0
 11 20  1  0  0  0  0
 12 14  2  0  0  0  0
 12 22  1  0  0  0  0
 13 16  2  0  0  0  0
 14 16  1  0  0  0  0
 14 23  1  0  0  0  0
 16 24  1  0  0  0  0
M  END
>  <PUBCHEM_COMPOUND_CID>
3081936

>  <PUBCHEM_CONFORMER_RMSD>
0.6

>  <PUBCHEM_CONFORMER_DIVERSEORDER>
1
16
18
12
6
14
13
15
5
9
11
7
3
17
8
4
2
10

>  <PUBCHEM_MMFF94_PARTIAL_CHARGES>
23
1 -0.18
10 -0.15
11 -0.3
12 -0.15
13 0.18
14 -0.15
15 0.66
16 -0.15
2 -0.65
20 0.15
21 0.27
22 0.15
23 0.15
24 0.15
25 0.36
26 0.36
27 0.5
3 -0.57
4 0.03
5 -0.99
6 -0.18
7 0.18
9 0.33

>  <PUBCHEM_EFFECTIVE_ROTOR_COUNT>
3

>  <PUBCHEM_PHARMACOPHORE_FEATURES>
9
1 2 acceptor
1 3 acceptor
1 4 cation
1 4 donor
1 5 cation
1 5 donor
3 2 3 15 anion
5 4 6 8 10 11 rings
6 8 10 12 13 14 16 rings

>  <PUBCHEM_HEAVY_ATOM_COUNT>
16

>  <PUBCHEM_ATOM_DEF_STEREO_COUNT>
1

>  <PUBCHEM_ATOM_UDEF_STEREO_COUNT>
0

>  <PUBCHEM_BOND_DEF_STEREO_COUNT>
0

>  <PUBCHEM_BOND_UDEF_STEREO_COUNT>
0

>  <PUBCHEM_ISOTOPIC_ATOM_COUNT>
0

>  <PUBCHEM_COMPONENT_COUNT>
1

>  <PUBCHEM_CACTVS_TAUTO_COUNT>
1

>  <PUBCHEM_CONFORMER_ID>
002F06D000000001

>  <PUBCHEM_MMFF94_ENERGY>
21.1611

>  <PUBCHEM_FEATURE_SELFOVERLAP>
45.82

>  <PUBCHEM_SHAPE_FINGERPRINT>
11578080 2 17984388924466825000
124424 183 13686303465081884254
12553582 1 18411975828143526921
13221675 6 18412827958434911515
14576447 43 18340199790755604503
15375462 189 18409729534599286731
15775835 57 18334861610268107463
16945 1 18336255791022852248
18186145 218 18334289916019968276
20645476 183 18412826893626043687
21634736 98 18269552921791453590
22112679 90 18270106921196644770
232386 152 17775000210831931829
23388829 49 18336548222809405032
23402539 116 18410292511045120260
23402655 69 18335140847572397877
23559900 14 18339087094691280412
25 1 18186239536893781042
2748010 2 16032970615544397136
2871803 45 18192422198631418127
3312278 4 18412265042788448683
34934 24 18412260597376354768
528886 8 18407760339401988560
63268167 104 18335700520365318296
7364860 26 18058442273837337785
90525 40 18128818534492151421

>  <PUBCHEM_SHAPE_MULTIPOLES>
309.44
6.2
2.12
1.03
0.36
0.09
-0.23
0.5
-1.22
-0.4
0.18
0.26
0.17
-0.87

>  <PUBCHEM_SHAPE_SELFOVERLAP>
658.378

>  <PUBCHEM_SHAPE_VOLUME>
173.9

>  <PUBCHEM_COORDINATE_TYPE>
2
5
10

$$$$
3081936
 OpenBabel12092211553D

 27 28  0  0  1  0  0  0  0  0999 V2000
    4.3479    0.5117   -0.8201 Cl  0  0  0  0  0  0  0  0  0  0  0  0
   -3.0663    2.8260   -1.9574 O   0  0  0  0  0  0  0  0  0  0  0  0
   -2.1679    3.6539   -0.0472 O   0  0  0  0  0  0  0  0  0  0  0  0
    1.4891    1.9059   -0.3135 N   0  0  0  0  0  0  0  0  0  0  0  0
   -2.7327    0.3958   -1.2472 N   0  0  0  0  0  0  0  0  0  0  0  0
   -0.4072    1.0903    0.5027 C   0  0  0  0  0  0  0  0  0  0  0  0
   -1.8055    0.9898    0.9672 C   0  0  0  0  0  0  0  0  0  0  0  0
    0.5575    0.0444    0.4891 C   0  0  0  0  0  0  0  0  0  0  0  0
   -2.8613    1.3162   -0.1145 C   0  0  1  0  0  0  0  0  0  0  0  0
    1.7382    0.5824   -0.0274 C   0  0  0  0  0  0  0  0  0  0  0  0
    0.1953    2.2221    0.0036 C   0  0  0  0  0  0  0  0  0  0  0  0
    0.5395   -1.3127    0.8678 C   0  0  0  0  0  0  0  0  0  0  0  0
    2.9065   -0.1717   -0.1847 C   0  0  0  0  0  0  0  0  0  0  0  0
    1.7006   -2.0794    0.7161 C   0  0  0  0  0  0  0  0  0  0  0  0
   -2.6599    2.7179   -0.6652 C   0  0  0  0  0  0  0  0  0  0  0  0
    2.8648   -1.5156    0.1977 C   0  0  0  0  0  0  0  0  0  0  0  0
   -1.9477    1.6682    1.8198 H   0  0  0  0  0  0  0  0  0  0  0  0
   -1.9824   -0.0209    1.3606 H   0  0  0  0  0  0  0  0  0  0  0  0
   -3.8762    1.2320    0.2919 H   0  0  0  0  0  0  0  0  0  0  0  0
   -0.1789    3.2239   -0.1557 H   0  0  0  0  0  0  0  0  0  0  0  0
    2.1643    2.5499   -0.7016 H   0  0  0  0  0  0  0  0  0  0  0  0
   -0.3558   -1.7691    1.2795 H   0  0  0  0  0  0  0  0  0  0  0  0
    1.6927   -3.1263    1.0079 H   0  0  0  0  0  0  0  0  0  0  0  0
    3.7486   -2.1417    0.0947 H   0  0  0  0  0  0  0  0  0  0  0  0
   -3.4870    0.5650   -1.9120 H   0  0  0  0  0  0  0  0  0  0  0  0
   -2.8520   -0.5629   -0.9217 H   0  0  0  0  0  0  0  0  0  0  0  0
   -2.9273    3.7310   -2.3095 H   0  0  0  0  0  0  0  0  0  0  0  0
  1 13  1  0  0  0  0
  2 15  1  0  0  0  0
  2 27  1  0  0  0  0
  3 15  2  0  0  0  0
  4 10  1  0  0  0  0
  4 11  1  0  0  0  0
  4 21  1  0  0  0  0
  5  9  1  0  0  0  0
  5 25  1  0  0  0  0
  5 26  1  0  0  0  0
  6  7  1  0  0  0  0
  6  8  1  0  0  0  0
  6 11  2  0  0  0  0
  7  9  1  0  0  0  0
  7 17  1  0  0  0  0
  7 18  1  0  0  0  0
  8 10  2  0  0  0  0
  8 12  1  0  0  0  0
  9 15  1  0  0  0  0
  9 19  1  1  0  0  0
 10 13  1  0  0  0  0
 11 20  1  0  0  0  0
 12 14  2  0  0  0  0
 12 22  1  0  0  0  0
 13 16  2  0  0  0  0
 14 16  1  0  0  0  0
 14 23  1  0  0  0  0
 16 24  1  0  0  0  0
M  END
>  <PUBCHEM_COMPOUND_CID>
3081936

>  <PUBCHEM_CONFORMER_RMSD>
0.6

>  <PUBCHEM_CONFORMER_DIVERSEORDER>
1
16
18
12
6
14
13
15
5
9
11
7
3
17
8
4
2
10

>  <PUBCHEM_MMFF94_PARTIAL_CHARGES>
23
1 -0.18
10 -0.15
11 -0.3
12 -0.15
13 0.18
14 -0.15
15 0.66
16 -0.15
2 -0.65
20 0.15
21 0.27
22 0.15
23 0.15
24 0.15
25 0.36
26 0.36
27 0.5
3 -0.57
4 0.03
5 -0.99
6 -0.18
7 0.18
9 0.33

>  <PUBCHEM_EFFECTIVE_ROTOR_COUNT>
3

>  <PUBCHEM_PHARMACOPHORE_FEATURES>
9
1 2 acceptor
1 3 acceptor
1 4 cation
1 4 donor
1 5 cation
1 5 donor
3 2 3 15 anion
5 4 6 8 10 11 rings
6 8 10 12 13 14 16 rings

>  <PUBCHEM_HEAVY_ATOM_COUNT>
16

>  <PUBCHEM_ATOM_DEF_STEREO_COUNT>
1

>  <PUBCHEM_ATOM_UDEF_STEREO_COUNT>
0

>  <PUBCHEM_BOND_DEF_STEREO_COUNT>
0

>  <PUBCHEM_BOND_UDEF_STEREO_COUNT>
0

>  <PUBCHEM_ISOTOPIC_ATOM_COUNT>
0

>  <PUBCHEM_COMPONENT_COUNT>
1

>  <PUBCHEM_CACTVS_TAUTO_COUNT>
1

>  <PUBCHEM_CONFORMER_ID>
002F06D000000001

>  <PUBCHEM_MMFF94_ENERGY>
21.1611

>  <PUBCHEM_FEATURE_SELFOVERLAP>
45.82

>  <PUBCHEM_SHAPE_FINGERPRINT>
11578080 2 17984388924466825000
124424 183 13686303465081884254
12553582 1 18411975828143526921
13221675 6 18412827958434911515
14576447 43 18340199790755604503
15375462 189 18409729534599286731
15775835 57 18334861610268107463
16945 1 18336255791022852248
18186145 218 18334289916019968276
20645476 183 18412826893626043687
21634736 98 18269552921791453590
22112679 90 18270106921196644770
232386 152 17775000210831931829
23388829 49 18336548222809405032
23402539 116 18410292511045120260
23402655 69 18335140847572397877
23559900 14 18339087094691280412
25 1 18186239536893781042
2748010 2 16032970615544397136
2871803 45 18192422198631418127
3312278 4 18412265042788448683
34934 24 18412260597376354768
528886 8 18407760339401988560
63268167 104 18335700520365318296
7364860 26 18058442273837337785
90525 40 18128818534492151421

>  <PUBCHEM_SHAPE_MULTIPOLES>
309.44
6.2
2.12
1.03
0.36
0.09
-0.23
0.5
-1.22
-0.4
0.18
0.26
0.17
-0.87

>  <PUBCHEM_SHAPE_SELFOVERLAP>
658.378

>  <PUBCHEM_SHAPE_VOLUME>
173.9

>  <PUBCHEM_COORDINATE_TYPE>
2
5
10

$$$$
3081936
 OpenBabel12092211553D

 27 28  0  0  1  0  0  0  0  0999 V2000
    4.3479    0.5117   -0.8201 Cl  0  0  0  0  0  0  0  0  0  0  0  0
   -1.9247   -0.3661    4.1776 O   0  0  0  0  0  0  0  0  0  0  0  0
    0.0587    0.3068    3.3089 O   0  0  0  0  0  0  0  0  0  0  0  0
    1.4891    1.9059   -0.3135 N   0  0  0  0  0  0  0  0  0  0  0  0
   -1.5632    2.6702    2.7654 N   0  0  0  0  0  0  0  0  0  0  0  0
   -0.4072    1.0903    0.5027 C   0  0  0  0  0  0  0  0  0  0  0  0
   -1.8055    0.9898    0.9672 C   0  0  0  0  0  0  0  0  0  0  0  0
    0.5575    0.0444    0.4891 C   0  0  0  0  0  0  0  0  0  0  0  0
   -2.0025    1.3043    2.4684 C   0  0  1  0  0  0  0  0  0  0  0  0
    1.7382    0.5824   -0.0274 C   0  0  0  0  0  0  0  0  0  0  0  0
    0.1953    2.2221    0.0036 C   0  0  0  0  0  0  0  0  0  0  0  0
    0.5395   -1.3127    0.8678 C   0  0  0  0  0  0  0  0  0  0  0  0
    2.9065   -0.1717   -0.1847 C   0  0  0  0  0  0  0  0  0  0  0  0
    1.7006   -2.0794    0.7161 C   0  0  0  0  0  0  0  0  0  0  0  0
   -1.1637    0.3778    3.3325 C   0  0  0  0  0  0  0  0  0  0  0  0
    2.8648   -1.5156    0.1977 C   0  0  0  0  0  0  0  0  0  0  0  0
   -2.1768   -0.0242    0.7641 H   0  0  0  0  0  0  0  0  0  0  0  0
   -2.4338    1.6610    0.3653 H   0  0  0  0  0  0  0  0  0  0  0  0
   -3.0565    1.2054    2.7535 H   0  0  0  0  0  0  0  0  0  0  0  0
   -0.1789    3.2239   -0.1557 H   0  0  0  0  0  0  0  0  0  0  0  0
    2.1643    2.5499   -0.7016 H   0  0  0  0  0  0  0  0  0  0  0  0
   -0.3558   -1.7691    1.2795 H   0  0  0  0  0  0  0  0  0  0  0  0
    1.6927   -3.1263    1.0079 H   0  0  0  0  0  0  0  0  0  0  0  0
    3.7486   -2.1417    0.0947 H   0  0  0  0  0  0  0  0  0  0  0  0
   -1.7780    2.8942    3.7366 H   0  0  0  0  0  0  0  0  0  0  0  0
   -2.0953    3.3294    2.1985 H   0  0  0  0  0  0  0  0  0  0  0  0
   -1.3773   -0.9570    4.7376 H   0  0  0  0  0  0  0  0  0  0  0  0
  1 13  1  0  0  0  0
  2 15  1  0  0  0  0
  2 27  1  0  0  0  0
  3 15  2  0  0  0  0
  4 10  1  0  0  0  0
  4 11  1  0  0  0  0
  4 21  1  0  0  0  0
  5  9  1  0  0  0  0
  5 25  1  0  0  0  0
  5 26  1  0  0  0  0
  6  7  1  0  0  0  0
  6  8  1  0  0  0  0
  6 11  2  0  0  0  0
  7  9  1  0  0  0  0
  7 17  1  0  0  0  0
  7 18  1  0  0  0  0
  8 10  2  0  0  0  0
  8 12  1  0  0  0  0
  9 15  1  0  0  0  0
  9 19  1  1  0  0  0
 10 13  1  0  0  0  0
 11 20  1  0  0  0  0
 12 14  2  0  0  0  0
 12 22  1  0  0  0  0
 13 16  2  0  0  0  0
 14 16  1  0  0  0  0
 14 23  1  0  0  0  0
 16 24  1  0  0  0  0
M  END
>  <PUBCHEM_COMPOUND_CID>
3081936

>  <PUBCHEM_CONFORMER_RMSD>
0.6

>  <PUBCHEM_CONFORMER_DIVERSEORDER>
1
16
18
12
6
14
13
15
5
9
11
7
3
17
8
4
2
10

>  <PUBCHEM_MMFF94_PARTIAL_CHARGES>
23
1 -0.18
10 -0.15
11 -0.3
12 -0.15
13 0.18
14 -0.15
15 0.66
16 -0.15
2 -0.65
20 0.15
21 0.27
22 0.15
23 0.15
24 0.15
25 0.36
26 0.36
27 0.5
3 -0.57
4 0.03
5 -0.99
6 -0.18
7 0.18
9 0.33

>  <PUBCHEM_EFFECTIVE_ROTOR_COUNT>
3

>  <PUBCHEM_PHARMACOPHORE_FEATURES>
9
1 2 acceptor
1 3 acceptor
1 4 cation
1 4 donor
1 5 cation
1 5 donor
3 2 3 15 anion
5 4 6 8 10 11 rings
6 8 10 12 13 14 16 rings

>  <PUBCHEM_HEAVY_ATOM_COUNT>
16

>  <PUBCHEM_ATOM_DEF_STEREO_COUNT>
1

>  <PUBCHEM_ATOM_UDEF_STEREO_COUNT>
0

>  <PUBCHEM_BOND_DEF_STEREO_COUNT>
0

>  <PUBCHEM_BOND_UDEF_STEREO_COUNT>
0

>  <PUBCHEM_ISOTOPIC_ATOM_COUNT>
0

>  <PUBCHEM_COMPONENT_COUNT>
1

>  <PUBCHEM_CACTVS_TAUTO_COUNT>
1

>  <PUBCHEM_CONFORMER_ID>
002F06D000000001

>  <PUBCHEM_MMFF94_ENERGY>
21.1611

>  <PUBCHEM_FEATURE_SELFOVERLAP>
45.82

>  <PUBCHEM_SHAPE_FINGERPRINT>
11578080 2 17984388924466825000
124424 183 13686303465081884254
12553582 1 18411975828143526921
13221675 6 18412827958434911515
14576447 43 18340199790755604503
15375462 189 18409729534599286731
15775835 57 18334861610268107463
16945 1 18336255791022852248
18186145 218 18334289916019968276
20645476 183 18412826893626043687
21634736 98 18269552921791453590
22112679 90 18270106921196644770
232386 152 17775000210831931829
23388829 49 18336548222809405032
23402539 116 18410292511045120260
23402655 69 18335140847572397877
23559900 14 18339087094691280412
25 1 18186239536893781042
2748010 2 16032970615544397136
2871803 45 18192422198631418127
3312278 4 18412265042788448683
34934 24 18412260597376354768
528886 8 18407760339401988560
63268167 104 18335700520365318296
7364860 26 18058442273837337785
90525 40 18128818534492151421

>  <PUBCHEM_SHAPE_MULTIPOLES>
309.44
6.2
2.12
1.03
0.36
0.09
-0.23
0.5
-1.22
-0.4
0.18
0.26
0.17
-0.87

>  <PUBCHEM_SHAPE_SELFOVERLAP>
658.378

>  <PUBCHEM_SHAPE_VOLUME>
173.9

>  <PUBCHEM_COORDINATE_TYPE>
2
5
10

$$$$
3081936
 OpenBabel12092211553D

 27 28  0  0  1  0  0  0  0  0999 V2000
    4.3479    0.5117   -0.8201 Cl  0  0  0  0  0  0  0  0  0  0  0  0
   -1.9707    2.2883    3.9044 O   0  0  0  0  0  0  0  0  0  0  0  0
   -0.5990    3.5694    2.6321 O   0  0  0  0  0  0  0  0  0  0  0  0
    1.4891    1.9059   -0.3135 N   0  0  0  0  0  0  0  0  0  0  0  0
   -2.3531    3.3629    0.5376 N   0  0  0  0  0  0  0  0  0  0  0  0
   -0.4072    1.0903    0.5027 C   0  0  0  0  0  0  0  0  0  0  0  0
   -1.8055    0.9898    0.9672 C   0  0  0  0  0  0  0  0  0  0  0  0
    0.5575    0.0444    0.4891 C   0  0  0  0  0  0  0  0  0  0  0  0
   -2.3798    2.3026    1.5485 C   0  0  1  0  0  0  0  0  0  0  0  0
    1.7382    0.5824   -0.0274 C   0  0  0  0  0  0  0  0  0  0  0  0
    0.1953    2.2221    0.0036 C   0  0  0  0  0  0  0  0  0  0  0  0
    0.5395   -1.3127    0.8678 C   0  0  0  0  0  0  0  0  0  0  0  0
    2.9065   -0.1717   -0.1847 C   0  0  0  0  0  0  0  0  0  0  0  0
    1.7006   -2.0794    0.7161 C   0  0  0  0  0  0  0  0  0  0  0  0
   -1.5415    2.7920    2.7175 C   0  0  0  0  0  0  0  0  0  0  0  0
    2.8648   -1.5156    0.1977 C   0  0  0  0  0  0  0  0  0  0  0  0
   -1.8718    0.2030    1.7313 H   0  0  0  0  0  0  0  0  0  0  0  0
   -2.4374    0.6485    0.1355 H   0  0  0  0  0  0  0  0  0  0  0  0
   -3.4148    2.1626    1.8821 H   0  0  0  0  0  0  0  0  0  0  0  0
   -0.1789    3.2239   -0.1557 H   0  0  0  0  0  0  0  0  0  0  0  0
    2.1643    2.5499   -0.7016 H   0  0  0  0  0  0  0  0  0  0  0  0
   -0.3558   -1.7691    1.2795 H   0  0  0  0  0  0  0  0  0  0  0  0
    1.6927   -3.1263    1.0079 H   0  0  0  0  0  0  0  0  0  0  0  0
    3.7486   -2.1417    0.0947 H   0  0  0  0  0  0  0  0  0  0  0  0
   -2.8124    4.1960    0.9045 H   0  0  0  0  0  0  0  0  0  0  0  0
   -2.8981    3.0732   -0.2736 H   0  0  0  0  0  0  0  0  0  0  0  0
   -1.4302    2.6132    4.6558 H   0  0  0  0  0  0  0  0  0  0  0  0
  1 13  1  0  0  0  0
  2 15  1  0  0  0  0
  2 27  1  0  0  0  0
  3 15  2  0  0  0  0
  4 10  1  0  0  0  0
  4 11  1  0  0  0  0
  4 21  1  0  0  0  0
  5  9  1  0  0  0  0
  5 25  1  0  0  0  0
  5 26  1  0  0  0  0
  6  7  1  0  0  0  0
  6  8  1  0  0  0  0
  6 11  2  0  0  0  0
  7  9  1  0  0  0  0
  7 17  1  0  0  0  0
  7 18  1  0  0  0  0
  8 10  2  0  0  0  0
  8 12  1  0  0  0  0
  9 15  1  0  0  0  0
  9 19  1  1  0  0  0
 10 13  1  0  0  0  0
 11 20  1  0  0  0  0
 12 14  2  0  0  0  0
 12 22  1  0  0  0  0
 13 16  2  0  0  0  0
 14 16  1  0  0  0  0
 14 23  1  0  0  0  0
 16 24  1  0  0  0  0
M  END
>  <PUBCHEM_COMPOUND_CID>
3081936

>  <PUBCHEM_CONFORMER_RMSD>
0.6

>  <PUBCHEM_CONFORMER_DIVERSEORDER>
1
16
18
12
6
14
13
15
5
9
11
7
3
17
8
4
2
10

>  <PUBCHEM_MMFF94_PARTIAL_CHARGES>
23
1 -0.18
10 -0.15
11 -0.3
12 -0.15
13 0.18
14 -0.15
15 0.66
16 -0.15
2 -0.65
20 0.15
21 0.27
22 0.15
23 0.15
24 0.15
25 0.36
26 0.36
27 0.5
3 -0.57
4 0.03
5 -0.99
6 -0.18
7 0.18
9 0.33

>  <PUBCHEM_EFFECTIVE_ROTOR_COUNT>
3

>  <PUBCHEM_PHARMACOPHORE_FEATURES>
9
1 2 acceptor
1 3 acceptor
1 4 cation
1 4 donor
1 5 cation
1 5 donor
3 2 3 15 anion
5 4 6 8 10 11 rings
6 8 10 12 13 14 16 rings

>  <PUBCHEM_HEAVY_ATOM_COUNT>
16

>  <PUBCHEM_ATOM_DEF_STEREO_COUNT>
1

>  <PUBCHEM_ATOM_UDEF_STEREO_COUNT>
0

>  <PUBCHEM_BOND_DEF_STEREO_COUNT>
0

>  <PUBCHEM_BOND_UDEF_STEREO_COUNT>
0

>  <PUBCHEM_ISOTOPIC_ATOM_COUNT>
0

>  <PUBCHEM_COMPONENT_COUNT>
1

>  <PUBCHEM_CACTVS_TAUTO_COUNT>
1

>  <PUBCHEM_CONFORMER_ID>
002F06D000000001

>  <PUBCHEM_MMFF94_ENERGY>
21.1611

>  <PUBCHEM_FEATURE_SELFOVERLAP>
45.82

>  <PUBCHEM_SHAPE_FINGERPRINT>
11578080 2 17984388924466825000
124424 183 13686303465081884254
12553582 1 18411975828143526921
13221675 6 18412827958434911515
14576447 43 18340199790755604503
15375462 189 18409729534599286731
15775835 57 18334861610268107463
16945 1 18336255791022852248
18186145 218 18334289916019968276
20645476 183 18412826893626043687
21634736 98 18269552921791453590
22112679 90 18270106921196644770
232386 152 17775000210831931829
23388829 49 18336548222809405032
23402539 116 18410292511045120260
23402655 69 18335140847572397877
23559900 14 18339087094691280412
25 1 18186239536893781042
2748010 2 16032970615544397136
2871803 45 18192422198631418127
3312278 4 18412265042788448683
34934 24 18412260597376354768
528886 8 18407760339401988560
63268167 104 18335700520365318296
7364860 26 18058442273837337785
90525 40 18128818534492151421

>  <PUBCHEM_SHAPE_MULTIPOLES>
309.44
6.2
2.12
1.03
0.36
0.09
-0.23
0.5
-1.22
-0.4
0.18
0.26
0.17
-0.87

>  <PUBCHEM_SHAPE_SELFOVERLAP>
658.378

>  <PUBCHEM_SHAPE_VOLUME>
173.9

>  <PUBCHEM_COORDINATE_TYPE>
2
5
10

$$$$
3081936
 OpenBabel12092211553D

 27 28  0  0  1  0  0  0  0  0999 V2000
    4.3479    0.5117   -0.8201 Cl  0  0  0  0  0  0  0  0  0  0  0  0
   -4.0767    1.2010    2.3881 O   0  0  0  0  0  0  0  0  0  0  0  0
   -5.0101    2.7209    0.9880 O   0  0  0  0  0  0  0  0  0  0  0  0
    1.4891    1.9059   -0.3135 N   0  0  0  0  0  0  0  0  0  0  0  0
   -1.9803    3.3578    1.6587 N   0  0  0  0  0  0  0  0  0  0  0  0
   -0.4072    1.0903    0.5027 C   0  0  0  0  0  0  0  0  0  0  0  0
   -1.8055    0.9898    0.9672 C   0  0  0  0  0  0  0  0  0  0  0  0
    0.5575    0.0444    0.4891 C   0  0  0  0  0  0  0  0  0  0  0  0
   -2.6100    2.3058    0.8564 C   0  0  1  0  0  0  0  0  0  0  0  0
    1.7382    0.5824   -0.0274 C   0  0  0  0  0  0  0  0  0  0  0  0
    0.1953    2.2221    0.0036 C   0  0  0  0  0  0  0  0  0  0  0  0
    0.5395   -1.3127    0.8678 C   0  0  0  0  0  0  0  0  0  0  0  0
    2.9065   -0.1717   -0.1847 C   0  0  0  0  0  0  0  0  0  0  0  0
    1.7006   -2.0794    0.7161 C   0  0  0  0  0  0  0  0  0  0  0  0
   -4.0191    2.1286    1.3966 C   0  0  0  0  0  0  0  0  0  0  0  0
    2.8648   -1.5156    0.1977 C   0  0  0  0  0  0  0  0  0  0  0  0
   -1.8104    0.6565    2.0142 H   0  0  0  0  0  0  0  0  0  0  0  0
   -2.3164    0.1978    0.4022 H   0  0  0  0  0  0  0  0  0  0  0  0
   -2.6642    2.6444   -0.1850 H   0  0  0  0  0  0  0  0  0  0  0  0
   -0.1789    3.2239   -0.1557 H   0  0  0  0  0  0  0  0  0  0  0  0
    2.1643    2.5499   -0.7016 H   0  0  0  0  0  0  0  0  0  0  0  0
   -0.3558   -1.7691    1.2795 H   0  0  0  0  0  0  0  0  0  0  0  0
    1.6927   -3.1263    1.0079 H   0  0  0  0  0  0  0  0  0  0  0  0
    3.7486   -2.1417    0.0947 H   0  0  0  0  0  0  0  0  0  0  0  0
   -2.4690    4.2400    1.5089 H   0  0  0  0  0  0  0  0  0  0  0  0
   -1.0246    3.5053    1.3361 H   0  0  0  0  0  0  0  0  0  0  0  0
   -4.9898    1.0859    2.7278 H   0  0  0  0  0  0  0  0  0  0  0  0
  1 13  1  0  0  0  0
  2 15  1  0  0  0  0
  2 27  1  0  0  0  0
  3 15  2  0  0  0  0
  4 10  1  0  0  0  0
  4 11  1  0  0  0  0
  4 21  1  0  0  0  0
  5  9  1  0  0  0  0
  5 25  1  0  0  0  0
  5 26  1  0  0  0  0
  6  7  1  0  0  0  0
  6  8  1  0  0  0  0
  6 11  2  0  0  0  0
  7  9  1  0  0  0  0
  7 17  1  0  0  0  0
  7 18  1  0  0  0  0
  8 10  2  0  0  0  0
  8 12  1  0  0  0  0
  9 15  1  0  0  0  0
  9 19  1  6  0  0  0
 10 13  1  0  0  0  0
 11 20  1  0  0  0  0
 12 14  2  0  0  0  0
 12 22  1  0  0  0  0
 13 16  2  0  0  0  0
 14 16  1  0  0  0  0
 14 23  1  0  0  0  0
 16 24  1  0  0  0  0
M  END
>  <PUBCHEM_COMPOUND_CID>
3081936

>  <PUBCHEM_CONFORMER_RMSD>
0.6

>  <PUBCHEM_CONFORMER_DIVERSEORDER>
1
16
18
12
6
14
13
15
5
9
11
7
3
17
8
4
2
10

>  <PUBCHEM_MMFF94_PARTIAL_CHARGES>
23
1 -0.18
10 -0.15
11 -0.3
12 -0.15
13 0.18
14 -0.15
15 0.66
16 -0.15
2 -0.65
20 0.15
21 0.27
22 0.15
23 0.15
24 0.15
25 0.36
26 0.36
27 0.5
3 -0.57
4 0.03
5 -0.99
6 -0.18
7 0.18
9 0.33

>  <PUBCHEM_EFFECTIVE_ROTOR_COUNT>
3

>  <PUBCHEM_PHARMACOPHORE_FEATURES>
9
1 2 acceptor
1 3 acceptor
1 4 cation
1 4 donor
1 5 cation
1 5 donor
3 2 3 15 anion
5 4 6 8 10 11 rings
6 8 10 12 13 14 16 rings

>  <PUBCHEM_HEAVY_ATOM_COUNT>
16

>  <PUBCHEM_ATOM_DEF_STEREO_COUNT>
1

>  <PUBCHEM_ATOM_UDEF_STEREO_COUNT>
0

>  <PUBCHEM_BOND_DEF_STEREO_COUNT>
0

>  <PUBCHEM_BOND_UDEF_STEREO_COUNT>
0

>  <PUBCHEM_ISOTOPIC_ATOM_COUNT>
0

>  <PUBCHEM_COMPONENT_COUNT>
1

>  <PUBCHEM_CACTVS_TAUTO_COUNT>
1

>  <PUBCHEM_CONFORMER_ID>
002F06D000000001

>  <PUBCHEM_MMFF94_ENERGY>
21.1611

>  <PUBCHEM_FEATURE_SELFOVERLAP>
45.82

>  <PUBCHEM_SHAPE_FINGERPRINT>
11578080 2 17984388924466825000
124424 183 13686303465081884254
12553582 1 18411975828143526921
13221675 6 18412827958434911515
14576447 43 18340199790755604503
15375462 189 18409729534599286731
15775835 57 18334861610268107463
16945 1 18336255791022852248
18186145 218 18334289916019968276
20645476 183 18412826893626043687
21634736 98 18269552921791453590
22112679 90 18270106921196644770
232386 152 17775000210831931829
23388829 49 18336548222809405032
23402539 116 18410292511045120260
23402655 69 18335140847572397877
23559900 14 18339087094691280412
25 1 18186239536893781042
2748010 2 16032970615544397136
2871803 45 18192422198631418127
3312278 4 18412265042788448683
34934 24 18412260597376354768
528886 8 18407760339401988560
63268167 104 18335700520365318296
7364860 26 18058442273837337785
90525 40 18128818534492151421

>  <PUBCHEM_SHAPE_MULTIPOLES>
309.44
6.2
2.12
1.03
0.36
0.09
-0.23
0.5
-1.22
-0.4
0.18
0.26
0.17
-0.87

>  <PUBCHEM_SHAPE_SELFOVERLAP>
658.378

>  <PUBCHEM_SHAPE_VOLUME>
173.9

>  <PUBCHEM_COORDINATE_TYPE>
2
5
10

$$$$
3081936
 OpenBabel12092211553D

 27 28  0  0  1  0  0  0  0  0999 V2000
    4.3479    0.5117   -0.8201 Cl  0  0  0  0  0  0  0  0  0  0  0  0
    0.0556    1.8780    3.0423 O   0  0  0  0  0  0  0  0  0  0  0  0
   -1.6385    1.3100    4.4383 O   0  0  0  0  0  0  0  0  0  0  0  0
    1.4891    1.9059   -0.3135 N   0  0  0  0  0  0  0  0  0  0  0  0
   -1.9492    3.3325    1.7466 N   0  0  0  0  0  0  0  0  0  0  0  0
   -0.4072    1.0903    0.5027 C   0  0  0  0  0  0  0  0  0  0  0  0
   -1.8055    0.9898    0.9672 C   0  0  0  0  0  0  0  0  0  0  0  0
    0.5575    0.0444    0.4891 C   0  0  0  0  0  0  0  0  0  0  0  0
   -2.1575    1.9361    2.1385 C   0  0  1  0  0  0  0  0  0  0  0  0
    1.7382    0.5824   -0.0274 C   0  0  0  0  0  0  0  0  0  0  0  0
    0.1953    2.2221    0.0036 C   0  0  0  0  0  0  0  0  0  0  0  0
    0.5395   -1.3127    0.8678 C   0  0  0  0  0  0  0  0  0  0  0  0
    2.9065   -0.1717   -0.1847 C   0  0  0  0  0  0  0  0  0  0  0  0
    1.7006   -2.0794    0.7161 C   0  0  0  0  0  0  0  0  0  0  0  0
   -1.2565    1.6788    3.3347 C   0  0  0  0  0  0  0  0  0  0  0  0
    2.8648   -1.5156    0.1977 C   0  0  0  0  0  0  0  0  0  0  0  0
   -2.0059   -0.0462    1.2738 H   0  0  0  0  0  0  0  0  0  0  0  0
   -2.4804    1.1841    0.1220 H   0  0  0  0  0  0  0  0  0  0  0  0
   -3.2033    1.8097    2.4425 H   0  0  0  0  0  0  0  0  0  0  0  0
   -0.1789    3.2239   -0.1557 H   0  0  0  0  0  0  0  0  0  0  0  0
    2.1643    2.5499   -0.7016 H   0  0  0  0  0  0  0  0  0  0  0  0
   -0.3558   -1.7691    1.2795 H   0  0  0  0  0  0  0  0  0  0  0  0
    1.6927   -3.1263    1.0079 H   0  0  0  0  0  0  0  0  0  0  0  0
    3.7486   -2.1417    0.0947 H   0  0  0  0  0  0  0  0  0  0  0  0
   -2.2661    3.9480    2.4951 H   0  0  0  0  0  0  0  0  0  0  0  0
   -2.5300    3.5487    0.9372 H   0  0  0  0  0  0  0  0  0  0  0  0
    0.6327    1.7036    3.8161 H   0  0  0  0  0  0  0  0  0  0  0  0
  1 13  1  0  0  0  0
  2 15  1  0  0  0  0
  2 27  1  0  0  0  0
  3 15  2  0  0  0  0
  4 10  1  0  0  0  0
  4 11  1  0  0  0  0
  4 21  1  0  0  0  0
  5  9  1  0  0  0  0
  5 25  1  0  0  0  0
  5 26  1  0  0  0  0
  6  7  1  0  0  0  0
  6  8  1  0  0  0  0
  6 11  2  0  0  0  0
  7  9  1  0  0  0  0
  7 17  1  0  0  0  0
  7 18  1  0  0  0  0
  8 10  2  0  0  0  0
  8 12  1  0  0  0  0
  9 15  1  0  0  0  0
  9 19  1  1  0  0  0
 10 13  1  0  0  0  0
 11 20  1  0  0  0  0
 12 14  2  0  0  0  0
 12 22  1  0  0  0  0
 13 16  2  0  0  0  0
 14 16  1  0  0  0  0
 14 23  1  0  0  0  0
 16 24  1  0  0  0  0
M  END
>  <PUBCHEM_COMPOUND_CID>
3081936

>  <PUBCHEM_CONFORMER_RMSD>
0.6

>  <PUBCHEM_CONFORMER_DIVERSEORDER>
1
16
18
12
6
14
13
15
5
9
11
7
3
17
8
4
2
10

>  <PUBCHEM_MMFF94_PARTIAL_CHARGES>
23
1 -0.18
10 -0.15
11 -0.3
12 -0.15
13 0.18
14 -0.15
15 0.66
16 -0.15
2 -0.65
20 0.15
21 0.27
22 0.15
23 0.15
24 0.15
25 0.36
26 0.36
27 0.5
3 -0.57
4 0.03
5 -0.99
6 -0.18
7 0.18
9 0.33

>  <PUBCHEM_EFFECTIVE_ROTOR_COUNT>
3

>  <PUBCHEM_PHARMACOPHORE_FEATURES>
9
1 2 acceptor
1 3 acceptor
1 4 cation
1 4 donor
1 5 cation
1 5 donor
3 2 3 15 anion
5 4 6 8 10 11 rings
6 8 10 12 13 14 16 rings

>  <PUBCHEM_HEAVY_ATOM_COUNT>
16

>  <PUBCHEM_ATOM_DEF_STEREO_COUNT>
1

>  <PUBCHEM_ATOM_UDEF_STEREO_COUNT>
0

>  <PUBCHEM_BOND_DEF_STEREO_COUNT>
0

>  <PUBCHEM_BOND_UDEF_STEREO_COUNT>
0

>  <PUBCHEM_ISOTOPIC_ATOM_COUNT>
0

>  <PUBCHEM_COMPONENT_COUNT>
1

>  <PUBCHEM_CACTVS_TAUTO_COUNT>
1

>  <PUBCHEM_CONFORMER_ID>
002F06D000000001

>  <PUBCHEM_MMFF94_ENERGY>
21.1611

>  <PUBCHEM_FEATURE_SELFOVERLAP>
45.82

>  <PUBCHEM_SHAPE_FINGERPRINT>
11578080 2 17984388924466825000
124424 183 13686303465081884254
12553582 1 18411975828143526921
13221675 6 18412827958434911515
14576447 43 18340199790755604503
15375462 189 18409729534599286731
15775835 57 18334861610268107463
16945 1 18336255791022852248
18186145 218 18334289916019968276
20645476 183 18412826893626043687
21634736 98 18269552921791453590
22112679 90 18270106921196644770
232386 152 17775000210831931829
23388829 49 18336548222809405032
23402539 116 18410292511045120260
23402655 69 18335140847572397877
23559900 14 18339087094691280412
25 1 18186239536893781042
2748010 2 16032970615544397136
2871803 45 18192422198631418127
3312278 4 18412265042788448683
34934 24 18412260597376354768
528886 8 18407760339401988560
63268167 104 18335700520365318296
7364860 26 18058442273837337785
90525 40 18128818534492151421

>  <PUBCHEM_SHAPE_MULTIPOLES>
309.44
6.2
2.12
1.03
0.36
0.09
-0.23
0.5
-1.22
-0.4
0.18
0.26
0.17
-0.87

>  <PUBCHEM_SHAPE_SELFOVERLAP>
658.378

>  <PUBCHEM_SHAPE_VOLUME>
173.9

>  <PUBCHEM_COORDINATE_TYPE>
2
5
10

$$$$
3081936
 OpenBabel12092211553D

 27 28  0  0  1  0  0  0  0  0999 V2000
    4.3479    0.5117   -0.8201 Cl  0  0  0  0  0  0  0  0  0  0  0  0
   -3.3635   -1.1649   -1.6638 O   0  0  0  0  0  0  0  0  0  0  0  0
   -1.5810   -1.5084   -0.3051 O   0  0  0  0  0  0  0  0  0  0  0  0
    1.4891    1.9059   -0.3135 N   0  0  0  0  0  0  0  0  0  0  0  0
   -4.1700    0.5147    0.4200 N   0  0  0  0  0  0  0  0  0  0  0  0
   -0.4072    1.0903    0.5027 C   0  0  0  0  0  0  0  0  0  0  0  0
   -1.8055    0.9898    0.9672 C   0  0  0  0  0  0  0  0  0  0  0  0
    0.5575    0.0444    0.4891 C   0  0  0  0  0  0  0  0  0  0  0  0
   -2.8152    0.5885   -0.1331 C   0  0  1  0  0  0  0  0  0  0  0  0
    1.7382    0.5824   -0.0274 C   0  0  0  0  0  0  0  0  0  0  0  0
    0.1953    2.2221    0.0036 C   0  0  0  0  0  0  0  0  0  0  0  0
    0.5395   -1.3127    0.8678 C   0  0  0  0  0  0  0  0  0  0  0  0
    2.9065   -0.1717   -0.1847 C   0  0  0  0  0  0  0  0  0  0  0  0
    1.7006   -2.0794    0.7161 C   0  0  0  0  0  0  0  0  0  0  0  0
   -2.4945   -0.7888   -0.6890 C   0  0  0  0  0  0  0  0  0  0  0  0
    2.8648   -1.5156    0.1977 C   0  0  0  0  0  0  0  0  0  0  0  0
   -2.1096    1.9553    1.3946 H   0  0  0  0  0  0  0  0  0  0  0  0
   -1.8588    0.2696    1.7955 H   0  0  0  0  0  0  0  0  0  0  0  0
   -2.8105    1.3169   -0.9525 H   0  0  0  0  0  0  0  0  0  0  0  0
   -0.1789    3.2239   -0.1557 H   0  0  0  0  0  0  0  0  0  0  0  0
    2.1643    2.5499   -0.7016 H   0  0  0  0  0  0  0  0  0  0  0  0
   -0.3558   -1.7691    1.2795 H   0  0  0  0  0  0  0  0  0  0  0  0
    1.6927   -3.1263    1.0079 H   0  0  0  0  0  0  0  0  0  0  0  0
    3.7486   -2.1417    0.0947 H   0  0  0  0  0  0  0  0  0  0  0  0
   -4.8359    0.3349   -0.3309 H   0  0  0  0  0  0  0  0  0  0  0  0
   -4.4259    1.4191    0.8147 H   0  0  0  0  0  0  0  0  0  0  0  0
   -3.1556   -2.0575   -2.0137 H   0  0  0  0  0  0  0  0  0  0  0  0
  1 13  1  0  0  0  0
  2 15  1  0  0  0  0
  2 27  1  0  0  0  0
  3 15  2  0  0  0  0
  4 10  1  0  0  0  0
  4 11  1  0  0  0  0
  4 21  1  0  0  0  0
  5  9  1  0  0  0  0
  5 25  1  0  0  0  0
  5 26  1  0  0  0  0
  6  7  1  0  0  0  0
  6  8  1  0  0  0  0
  6 11  2  0  0  0  0
  7  9  1  0  0  0  0
  7 17  1  0  0  0  0
  7 18  1  0  0  0  0
  8 10  2  0  0  0  0
  8 12  1  0  0  0  0
  9 15  1  0  0  0  0
  9 19  1  6  0  0  0
 10 13  1  0  0  0  0
 11 20  1  0  0  0  0
 12 14  2  0  0  0  0
 12 22  1  0  0  0  0
 13 16  2  0  0  0  0
 14 16  1  0  0  0  0
 14 23  1  0  0  0  0
 16 24  1  0  0  0  0
M  END
>  <PUBCHEM_COMPOUND_CID>
3081936

>  <PUBCHEM_CONFORMER_RMSD>
0.6

>  <PUBCHEM_CONFORMER_DIVERSEORDER>
1
16
18
12
6
14
13
15
5
9
11
7
3
17
8
4
2
10

>  <PUBCHEM_MMFF94_PARTIAL_CHARGES>
23
1 -0.18
10 -0.15
11 -0.3
12 -0.15
13 0.18
14 -0.15
15 0.66
16 -0.15
2 -0.65
20 0.15
21 0.27
22 0.15
23 0.15
24 0.15
25 0.36
26 0.36
27 0.5
3 -0.57
4 0.03
5 -0.99
6 -0.18
7 0.18
9 0.33

>  <PUBCHEM_EFFECTIVE_ROTOR_COUNT>
3

>  <PUBCHEM_PHARMACOPHORE_FEATURES>
9
1 2 acceptor
1 3 acceptor
1 4 cation
1 4 donor
1 5 cation
1 5 donor
3 2 3 15 anion
5 4 6 8 10 11 rings
6 8 10 12 13 14 16 rings

>  <PUBCHEM_HEAVY_ATOM_COUNT>
16

>  <PUBCHEM_ATOM_DEF_STEREO_COUNT>
1

>  <PUBCHEM_ATOM_UDEF_STEREO_COUNT>
0

>  <PUBCHEM_BOND_DEF_STEREO_COUNT>
0

>  <PUBCHEM_BOND_UDEF_STEREO_COUNT>
0

>  <PUBCHEM_ISOTOPIC_ATOM_COUNT>
0

>  <PUBCHEM_COMPONENT_COUNT>
1

>  <PUBCHEM_CACTVS_TAUTO_COUNT>
1

>  <PUBCHEM_CONFORMER_ID>
002F06D000000001

>  <PUBCHEM_MMFF94_ENERGY>
21.1611

>  <PUBCHEM_FEATURE_SELFOVERLAP>
45.82

>  <PUBCHEM_SHAPE_FINGERPRINT>
11578080 2 17984388924466825000
124424 183 13686303465081884254
12553582 1 18411975828143526921
13221675 6 18412827958434911515
14576447 43 18340199790755604503
15375462 189 18409729534599286731
15775835 57 18334861610268107463
16945 1 18336255791022852248
18186145 218 18334289916019968276
20645476 183 18412826893626043687
21634736 98 18269552921791453590
22112679 90 18270106921196644770
232386 152 17775000210831931829
23388829 49 18336548222809405032
23402539 116 18410292511045120260
23402655 69 18335140847572397877
23559900 14 18339087094691280412
25 1 18186239536893781042
2748010 2 16032970615544397136
2871803 45 18192422198631418127
3312278 4 18412265042788448683
34934 24 18412260597376354768
528886 8 18407760339401988560
63268167 104 18335700520365318296
7364860 26 18058442273837337785
90525 40 18128818534492151421

>  <PUBCHEM_SHAPE_MULTIPOLES>
309.44
6.2
2.12
1.03
0.36
0.09
-0.23
0.5
-1.22
-0.4
0.18
0.26
0.17
-0.87

>  <PUBCHEM_SHAPE_SELFOVERLAP>
658.378

>  <PUBCHEM_SHAPE_VOLUME>
173.9

>  <PUBCHEM_COORDINATE_TYPE>
2
5
10

$$$$
3081936
 OpenBabel12092211553D

 27 28  0  0  1  0  0  0  0  0999 V2000
    4.3479    0.5117   -0.8201 Cl  0  0  0  0  0  0  0  0  0  0  0  0
   -4.4836    0.7944    1.0754 O   0  0  0  0  0  0  0  0  0  0  0  0
   -4.4672   -1.3746    1.7360 O   0  0  0  0  0  0  0  0  0  0  0  0
    1.4891    1.9059   -0.3135 N   0  0  0  0  0  0  0  0  0  0  0  0
   -2.4420   -0.7893   -0.6284 N   0  0  0  0  0  0  0  0  0  0  0  0
   -0.4072    1.0903    0.5027 C   0  0  0  0  0  0  0  0  0  0  0  0
   -1.8055    0.9898    0.9672 C   0  0  0  0  0  0  0  0  0  0  0  0
    0.5575    0.0444    0.4891 C   0  0  0  0  0  0  0  0  0  0  0  0
   -2.4379   -0.4098    0.7868 C   0  0  1  0  0  0  0  0  0  0  0  0
    1.7382    0.5824   -0.0274 C   0  0  0  0  0  0  0  0  0  0  0  0
    0.1953    2.2221    0.0036 C   0  0  0  0  0  0  0  0  0  0  0  0
    0.5395   -1.3127    0.8678 C   0  0  0  0  0  0  0  0  0  0  0  0
    2.9065   -0.1717   -0.1847 C   0  0  0  0  0  0  0  0  0  0  0  0
    1.7006   -2.0794    0.7161 C   0  0  0  0  0  0  0  0  0  0  0  0
   -3.8867   -0.4147    1.2448 C   0  0  0  0  0  0  0  0  0  0  0  0
    2.8648   -1.5156    0.1977 C   0  0  0  0  0  0  0  0  0  0  0  0
   -2.4146    1.7281    0.4274 H   0  0  0  0  0  0  0  0  0  0  0  0
   -1.8552    1.2821    2.0253 H   0  0  0  0  0  0  0  0  0  0  0  0
   -1.8801   -1.1665    1.3509 H   0  0  0  0  0  0  0  0  0  0  0  0
   -0.1789    3.2239   -0.1557 H   0  0  0  0  0  0  0  0  0  0  0  0
    2.1643    2.5499   -0.7016 H   0  0  0  0  0  0  0  0  0  0  0  0
   -0.3558   -1.7691    1.2795 H   0  0  0  0  0  0  0  0  0  0  0  0
    1.6927   -3.1263    1.0079 H   0  0  0  0  0  0  0  0  0  0  0  0
    3.7486   -2.1417    0.0947 H   0  0  0  0  0  0  0  0  0  0  0  0
   -2.7806   -1.7462   -0.7243 H   0  0  0  0  0  0  0  0  0  0  0  0
   -1.4862   -0.7904   -0.9829 H   0  0  0  0  0  0  0  0  0  0  0  0
   -5.4163    0.7869    1.3792 H   0  0  0  0  0  0  0  0  0  0  0  0
  1 13  1  0  0  0  0
  2 15  1  0  0  0  0
  2 27  1  0  0  0  0
  3 15  2  0  0  0  0
  4 10  1  0  0  0  0
  4 11  1  0  0  0  0
  4 21  1  0  0  0  0
  5  9  1  0  0  0  0
  5 25  1  0  0  0  0
  5 26  1  0  0  0  0
  6  7  1  0  0  0  0
  6  8  1  0  0  0  0
  6 11  2  0  0  0  0
  7  9  1  0  0  0  0
  7 17  1  0  0  0  0
  7 18  1  0  0  0  0
  8 10  2  0  0  0  0
  8 12  1  0  0  0  0
  9 15  1  0  0  0  0
  9 19  1  1  0  0  0
 10 13  1  0  0  0  0
 11 20  1  0  0  0  0
 12 14  2  0  0  0  0
 12 22  1  0  0  0  0
 13 16  2  0  0  0  0
 14 16  1  0  0  0  0
 14 23  1  0  0  0  0
 16 24  1  0  0  0  0
M  END
>  <PUBCHEM_COMPOUND_CID>
3081936

>  <PUBCHEM_CONFORMER_RMSD>
0.6

>  <PUBCHEM_CONFORMER_DIVERSEORDER>
1
16
18
12
6
14
13
15
5
9
11
7
3
17
8
4
2
10

>  <PUBCHEM_MMFF94_PARTIAL_CHARGES>
23
1 -0.18
10 -0.15
11 -0.3
12 -0.15
13 0.18
14 -0.15
15 0.66
16 -0.15
2 -0.65
20 0.15
21 0.27
22 0.15
23 0.15
24 0.15
25 0.36
26 0.36
27 0.5
3 -0.57
4 0.03
5 -0.99
6 -0.18
7 0.18
9 0.33

>  <PUBCHEM_EFFECTIVE_ROTOR_COUNT>
3

>  <PUBCHEM_PHARMACOPHORE_FEATURES>
9
1 2 acceptor
1 3 acceptor
1 4 cation
1 4 donor
1 5 cation
1 5 donor
3 2 3 15 anion
5 4 6 8 10 11 rings
6 8 10 12 13 14 16 rings

>  <PUBCHEM_HEAVY_ATOM_COUNT>
16

>  <PUBCHEM_ATOM_DEF_STEREO_COUNT>
1

>  <PUBCHEM_ATOM_UDEF_STEREO_COUNT>
0

>  <PUBCHEM_BOND_DEF_STEREO_COUNT>
0

>  <PUBCHEM_BOND_UDEF_STEREO_COUNT>
0

>  <PUBCHEM_ISOTOPIC_ATOM_COUNT>
0

>  <PUBCHEM_COMPONENT_COUNT>
1

>  <PUBCHEM_CACTVS_TAUTO_COUNT>
1

>  <PUBCHEM_CONFORMER_ID>
002F06D000000001

>  <PUBCHEM_MMFF94_ENERGY>
21.1611

>  <PUBCHEM_FEATURE_SELFOVERLAP>
45.82

>  <PUBCHEM_SHAPE_FINGERPRINT>
11578080 2 17984388924466825000
124424 183 13686303465081884254
12553582 1 18411975828143526921
13221675 6 18412827958434911515
14576447 43 18340199790755604503
15375462 189 18409729534599286731
15775835 57 18334861610268107463
16945 1 18336255791022852248
18186145 218 18334289916019968276
20645476 183 18412826893626043687
21634736 98 18269552921791453590
22112679 90 18270106921196644770
232386 152 17775000210831931829
23388829 49 18336548222809405032
23402539 116 18410292511045120260
23402655 69 18335140847572397877
23559900 14 18339087094691280412
25 1 18186239536893781042
2748010 2 16032970615544397136
2871803 45 18192422198631418127
3312278 4 18412265042788448683
34934 24 18412260597376354768
528886 8 18407760339401988560
63268167 104 18335700520365318296
7364860 26 18058442273837337785
90525 40 18128818534492151421

>  <PUBCHEM_SHAPE_MULTIPOLES>
309.44
6.2
2.12
1.03
0.36
0.09
-0.23
0.5
-1.22
-0.4
0.18
0.26
0.17
-0.87

>  <PUBCHEM_SHAPE_SELFOVERLAP>
658.378

>  <PUBCHEM_SHAPE_VOLUME>
173.9

>  <PUBCHEM_COORDINATE_TYPE>
2
5
10

$$$$
3081936
 OpenBabel12092211553D

 27 28  0  0  1  0  0  0  0  0999 V2000
    4.3479    0.5117   -0.8201 Cl  0  0  0  0  0  0  0  0  0  0  0  0
   -4.0085   -0.7260    2.5619 O   0  0  0  0  0  0  0  0  0  0  0  0
   -4.8535   -0.1922    0.5266 O   0  0  0  0  0  0  0  0  0  0  0  0
    1.4891    1.9059   -0.3135 N   0  0  0  0  0  0  0  0  0  0  0  0
   -2.4420   -0.7893   -0.6284 N   0  0  0  0  0  0  0  0  0  0  0  0
   -0.4072    1.0903    0.5027 C   0  0  0  0  0  0  0  0  0  0  0  0
   -1.8055    0.9898    0.9672 C   0  0  0  0  0  0  0  0  0  0  0  0
    0.5575    0.0444    0.4891 C   0  0  0  0  0  0  0  0  0  0  0  0
   -2.4379   -0.4098    0.7868 C   0  0  1  0  0  0  0  0  0  0  0  0
    1.7382    0.5824   -0.0274 C   0  0  0  0  0  0  0  0  0  0  0  0
    0.1953    2.2221    0.0036 C   0  0  0  0  0  0  0  0  0  0  0  0
    0.5395   -1.3127    0.8678 C   0  0  0  0  0  0  0  0  0  0  0  0
    2.9065   -0.1717   -0.1847 C   0  0  0  0  0  0  0  0  0  0  0  0
    1.7006   -2.0794    0.7161 C   0  0  0  0  0  0  0  0  0  0  0  0
   -3.8867   -0.4147    1.2448 C   0  0  0  0  0  0  0  0  0  0  0  0
    2.8648   -1.5156    0.1977 C   0  0  0  0  0  0  0  0  0  0  0  0
   -2.4146    1.7281    0.4274 H   0  0  0  0  0  0  0  0  0  0  0  0
   -1.8552    1.2821    2.0253 H   0  0  0  0  0  0  0  0  0  0  0  0
   -1.8801   -1.1665    1.3509 H   0  0  0  0  0  0  0  0  0  0  0  0
   -0.1789    3.2239   -0.1557 H   0  0  0  0  0  0  0  0  0  0  0  0
    2.1643    2.5499   -0.7016 H   0  0  0  0  0  0  0  0  0  0  0  0
   -0.3558   -1.7691    1.2795 H   0  0  0  0  0  0  0  0  0  0  0  0
    1.6927   -3.1263    1.0079 H   0  0  0  0  0  0  0  0  0  0  0  0
    3.7486   -2.1417    0.0947 H   0  0  0  0  0  0  0  0  0  0  0  0
   -2.7806   -1.7462   -0.7243 H   0  0  0  0  0  0  0  0  0  0  0  0
   -1.4862   -0.7904   -0.9829 H   0  0  0  0  0  0  0  0  0  0  0  0
   -4.9462   -0.7345    2.8500 H   0  0  0  0  0  0  0  0  0  0  0  0
  1 13  1  0  0  0  0
  2 15  1  0  0  0  0
  2 27  1  0  0  0  0
  3 15  2  0  0  0  0
  4 10  1  0  0  0  0
  4 11  1  0  0  0  0
  4 21  1  0  0  0  0
  5  9  1  0  0  0  0
  5 25  1  0  0  0  0
  5 26  1  0  0  0  0
  6  7  1  0  0  0  0
  6  8  1  0  0  0  0
  6 11  2  0  0  0  0
  7  9  1  0  0  0  0
  7 17  1  0  0  0  0
  7 18  1  0  0  0  0
  8 10  2  0  0  0  0
  8 12  1  0  0  0  0
  9 15  1  0  0  0  0
  9 19  1  1  0  0  0
 10 13  1  0  0  0  0
 11 20  1  0  0  0  0
 12 14  2  0  0  0  0
 12 22  1  0  0  0  0
 13 16  2  0  0  0  0
 14 16  1  0  0  0  0
 14 23  1  0  0  0  0
 16 24  1  0  0  0  0
M  END
>  <PUBCHEM_COMPOUND_CID>
3081936

>  <PUBCHEM_CONFORMER_RMSD>
0.6

>  <PUBCHEM_CONFORMER_DIVERSEORDER>
1
16
18
12
6
14
13
15
5
9
11
7
3
17
8
4
2
10

>  <PUBCHEM_MMFF94_PARTIAL_CHARGES>
23
1 -0.18
10 -0.15
11 -0.3
12 -0.15
13 0.18
14 -0.15
15 0.66
16 -0.15
2 -0.65
20 0.15
21 0.27
22 0.15
23 0.15
24 0.15
25 0.36
26 0.36
27 0.5
3 -0.57
4 0.03
5 -0.99
6 -0.18
7 0.18
9 0.33

>  <PUBCHEM_EFFECTIVE_ROTOR_COUNT>
3

>  <PUBCHEM_PHARMACOPHORE_FEATURES>
9
1 2 acceptor
1 3 acceptor
1 4 cation
1 4 donor
1 5 cation
1 5 donor
3 2 3 15 anion
5 4 6 8 10 11 rings
6 8 10 12 13 14 16 rings

>  <PUBCHEM_HEAVY_ATOM_COUNT>
16

>  <PUBCHEM_ATOM_DEF_STEREO_COUNT>
1

>  <PUBCHEM_ATOM_UDEF_STEREO_COUNT>
0

>  <PUBCHEM_BOND_DEF_STEREO_COUNT>
0

>  <PUBCHEM_BOND_UDEF_STEREO_COUNT>
0

>  <PUBCHEM_ISOTOPIC_ATOM_COUNT>
0

>  <PUBCHEM_COMPONENT_COUNT>
1

>  <PUBCHEM_CACTVS_TAUTO_COUNT>
1

>  <PUBCHEM_CONFORMER_ID>
002F06D000000001

>  <PUBCHEM_MMFF94_ENERGY>
21.1611

>  <PUBCHEM_FEATURE_SELFOVERLAP>
45.82

>  <PUBCHEM_SHAPE_FINGERPRINT>
11578080 2 17984388924466825000
124424 183 13686303465081884254
12553582 1 18411975828143526921
13221675 6 18412827958434911515
14576447 43 18340199790755604503
15375462 189 18409729534599286731
15775835 57 18334861610268107463
16945 1 18336255791022852248
18186145 218 18334289916019968276
20645476 183 18412826893626043687
21634736 98 18269552921791453590
22112679 90 18270106921196644770
232386 152 17775000210831931829
23388829 49 18336548222809405032
23402539 116 18410292511045120260
23402655 69 18335140847572397877
23559900 14 18339087094691280412
25 1 18186239536893781042
2748010 2 16032970615544397136
2871803 45 18192422198631418127
3312278 4 18412265042788448683
34934 24 18412260597376354768
528886 8 18407760339401988560
63268167 104 18335700520365318296
7364860 26 18058442273837337785
90525 40 18128818534492151421

>  <PUBCHEM_SHAPE_MULTIPOLES>
309.44
6.2
2.12
1.03
0.36
0.09
-0.23
0.5
-1.22
-0.4
0.18
0.26
0.17
-0.87

>  <PUBCHEM_SHAPE_SELFOVERLAP>
658.378

>  <PUBCHEM_SHAPE_VOLUME>
173.9

>  <PUBCHEM_COORDINATE_TYPE>
2
5
10

$$$$
3081936
 OpenBabel12092211553D

 27 28  0  0  1  0  0  0  0  0999 V2000
    4.3479    0.5117   -0.8201 Cl  0  0  0  0  0  0  0  0  0  0  0  0
   -2.6323    4.5874    1.5718 O   0  0  0  0  0  0  0  0  0  0  0  0
   -0.8919    3.3109    2.2665 O   0  0  0  0  0  0  0  0  0  0  0  0
    1.4891    1.9059   -0.3135 N   0  0  0  0  0  0  0  0  0  0  0  0
   -2.6664    2.7535   -0.5376 N   0  0  0  0  0  0  0  0  0  0  0  0
   -0.4072    1.0903    0.5027 C   0  0  0  0  0  0  0  0  0  0  0  0
   -1.8055    0.9898    0.9672 C   0  0  0  0  0  0  0  0  0  0  0  0
    0.5575    0.0444    0.4891 C   0  0  0  0  0  0  0  0  0  0  0  0
   -2.6100    2.3058    0.8564 C   0  0  1  0  0  0  0  0  0  0  0  0
    1.7382    0.5824   -0.0274 C   0  0  0  0  0  0  0  0  0  0  0  0
    0.1953    2.2221    0.0036 C   0  0  0  0  0  0  0  0  0  0  0  0
    0.5395   -1.3127    0.8678 C   0  0  0  0  0  0  0  0  0  0  0  0
    2.9065   -0.1717   -0.1847 C   0  0  0  0  0  0  0  0  0  0  0  0
    1.7006   -2.0794    0.7161 C   0  0  0  0  0  0  0  0  0  0  0  0
   -1.9424    3.4190    1.6463 C   0  0  0  0  0  0  0  0  0  0  0  0
    2.8648   -1.5156    0.1977 C   0  0  0  0  0  0  0  0  0  0  0  0
   -1.8104    0.6565    2.0142 H   0  0  0  0  0  0  0  0  0  0  0  0
   -2.3164    0.1978    0.4022 H   0  0  0  0  0  0  0  0  0  0  0  0
   -3.6344    2.1698    1.2225 H   0  0  0  0  0  0  0  0  0  0  0  0
   -0.1789    3.2239   -0.1557 H   0  0  0  0  0  0  0  0  0  0  0  0
    2.1643    2.5499   -0.7016 H   0  0  0  0  0  0  0  0  0  0  0  0
   -0.3558   -1.7691    1.2795 H   0  0  0  0  0  0  0  0  0  0  0  0
    1.6927   -3.1263    1.0079 H   0  0  0  0  0  0  0  0  0  0  0  0
    3.7486   -2.1417    0.0947 H   0  0  0  0  0  0  0  0  0  0  0  0
   -3.2703    3.5719   -0.6091 H   0  0  0  0  0  0  0  0  0  0  0  0
   -3.1009    2.0302   -1.1097 H   0  0  0  0  0  0  0  0  0  0  0  0
   -2.1930    5.3039    2.0777 H   0  0  0  0  0  0  0  0  0  0  0  0
  1 13  1  0  0  0  0
  2 15  1  0  0  0  0
  2 27  1  0  0  0  0
  3 15  2  0  0  0  0
  4 10  1  0  0  0  0
  4 11  1  0  0  0  0
  4 21  1  0  0  0  0
  5  9  1  0  0  0  0
  5 25  1  0  0  0  0
  5 26  1  0  0  0  0
  6  7  1  0  0  0  0
  6  8  1  0  0  0  0
  6 11  2  0  0  0  0
  7  9  1  0  0  0  0
  7 17  1  0  0  0  0
  7 18  1  0  0  0  0
  8 10  2  0  0  0  0
  8 12  1  0  0  0  0
  9 15  1  0  0  0  0
  9 19  1  1  0  0  0
 10 13  1  0  0  0  0
 11 20  1  0  0  0  0
 12 14  2  0  0  0  0
 12 22  1  0  0  0  0
 13 16  2  0  0  0  0
 14 16  1  0  0  0  0
 14 23  1  0  0  0  0
 16 24  1  0  0  0  0
M  END
>  <PUBCHEM_COMPOUND_CID>
3081936

>  <PUBCHEM_CONFORMER_RMSD>
0.6

>  <PUBCHEM_CONFORMER_DIVERSEORDER>
1
16
18
12
6
14
13
15
5
9
11
7
3
17
8
4
2
10

>  <PUBCHEM_MMFF94_PARTIAL_CHARGES>
23
1 -0.18
10 -0.15
11 -0.3
12 -0.15
13 0.18
14 -0.15
15 0.66
16 -0.15
2 -0.65
20 0.15
21 0.27
22 0.15
23 0.15
24 0.15
25 0.36
26 0.36
27 0.5
3 -0.57
4 0.03
5 -0.99
6 -0.18
7 0.18
9 0.33

>  <PUBCHEM_EFFECTIVE_ROTOR_COUNT>
3

>  <PUBCHEM_PHARMACOPHORE_FEATURES>
9
1 2 acceptor
1 3 acceptor
1 4 cation
1 4 donor
1 5 cation
1 5 donor
3 2 3 15 anion
5 4 6 8 10 11 rings
6 8 10 12 13 14 16 rings

>  <PUBCHEM_HEAVY_ATOM_COUNT>
16

>  <PUBCHEM_ATOM_DEF_STEREO_COUNT>
1

>  <PUBCHEM_ATOM_UDEF_STEREO_COUNT>
0

>  <PUBCHEM_BOND_DEF_STEREO_COUNT>
0

>  <PUBCHEM_BOND_UDEF_STEREO_COUNT>
0

>  <PUBCHEM_ISOTOPIC_ATOM_COUNT>
0

>  <PUBCHEM_COMPONENT_COUNT>
1

>  <PUBCHEM_CACTVS_TAUTO_COUNT>
1

>  <PUBCHEM_CONFORMER_ID>
002F06D000000001

>  <PUBCHEM_MMFF94_ENERGY>
21.1611

>  <PUBCHEM_FEATURE_SELFOVERLAP>
45.82

>  <PUBCHEM_SHAPE_FINGERPRINT>
11578080 2 17984388924466825000
124424 183 13686303465081884254
12553582 1 18411975828143526921
13221675 6 18412827958434911515
14576447 43 18340199790755604503
15375462 189 18409729534599286731
15775835 57 18334861610268107463
16945 1 18336255791022852248
18186145 218 18334289916019968276
20645476 183 18412826893626043687
21634736 98 18269552921791453590
22112679 90 18270106921196644770
232386 152 17775000210831931829
23388829 49 18336548222809405032
23402539 116 18410292511045120260
23402655 69 18335140847572397877
23559900 14 18339087094691280412
25 1 18186239536893781042
2748010 2 16032970615544397136
2871803 45 18192422198631418127
3312278 4 18412265042788448683
34934 24 18412260597376354768
528886 8 18407760339401988560
63268167 104 18335700520365318296
7364860 26 18058442273837337785
90525 40 18128818534492151421

>  <PUBCHEM_SHAPE_MULTIPOLES>
309.44
6.2
2.12
1.03
0.36
0.09
-0.23
0.5
-1.22
-0.4
0.18
0.26
0.17
-0.87

>  <PUBCHEM_SHAPE_SELFOVERLAP>
658.378

>  <PUBCHEM_SHAPE_VOLUME>
173.9

>  <PUBCHEM_COORDINATE_TYPE>
2
5
10

$$$$
3081936
 OpenBabel12092211553D

 27 28  0  0  1  0  0  0  0  0999 V2000
    4.3479    0.5117   -0.8201 Cl  0  0  0  0  0  0  0  0  0  0  0  0
   -1.1616    3.3991    1.6791 O   0  0  0  0  0  0  0  0  0  0  0  0
   -1.6192    3.2458    3.8946 O   0  0  0  0  0  0  0  0  0  0  0  0
    1.4891    1.9059   -0.3135 N   0  0  0  0  0  0  0  0  0  0  0  0
   -3.4156    1.1792    2.8348 N   0  0  0  0  0  0  0  0  0  0  0  0
   -0.4072    1.0903    0.5027 C   0  0  0  0  0  0  0  0  0  0  0  0
   -1.8055    0.9898    0.9672 C   0  0  0  0  0  0  0  0  0  0  0  0
    0.5575    0.0444    0.4891 C   0  0  0  0  0  0  0  0  0  0  0  0
   -2.0025    1.3043    2.4684 C   0  0  1  0  0  0  0  0  0  0  0  0
    1.7382    0.5824   -0.0274 C   0  0  0  0  0  0  0  0  0  0  0  0
    0.1953    2.2221    0.0036 C   0  0  0  0  0  0  0  0  0  0  0  0
    0.5395   -1.3127    0.8678 C   0  0  0  0  0  0  0  0  0  0  0  0
    2.9065   -0.1717   -0.1847 C   0  0  0  0  0  0  0  0  0  0  0  0
    1.7006   -2.0794    0.7161 C   0  0  0  0  0  0  0  0  0  0  0  0
   -1.5946    2.7340    2.7822 C   0  0  0  0  0  0  0  0  0  0  0  0
    2.8648   -1.5156    0.1977 C   0  0  0  0  0  0  0  0  0  0  0  0
   -2.1768   -0.0242    0.7641 H   0  0  0  0  0  0  0  0  0  0  0  0
   -2.4338    1.6610    0.3653 H   0  0  0  0  0  0  0  0  0  0  0  0
   -1.4168    0.6184    3.0917 H   0  0  0  0  0  0  0  0  0  0  0  0
   -0.1789    3.2239   -0.1557 H   0  0  0  0  0  0  0  0  0  0  0  0
    2.1643    2.5499   -0.7016 H   0  0  0  0  0  0  0  0  0  0  0  0
   -0.3558   -1.7691    1.2795 H   0  0  0  0  0  0  0  0  0  0  0  0
    1.6927   -3.1263    1.0079 H   0  0  0  0  0  0  0  0  0  0  0  0
    3.7486   -2.1417    0.0947 H   0  0  0  0  0  0  0  0  0  0  0  0
   -3.5196    1.3036    3.8414 H   0  0  0  0  0  0  0  0  0  0  0  0
   -3.7370    0.2333    2.6317 H   0  0  0  0  0  0  0  0  0  0  0  0
   -0.8931    4.3189    1.8892 H   0  0  0  0  0  0  0  0  0  0  0  0
  1 13  1  0  0  0  0
  2 15  1  0  0  0  0
  2 27  1  0  0  0  0
  3 15  2  0  0  0  0
  4 10  1  0  0  0  0
  4 11  1  0  0  0  0
  4 21  1  0  0  0  0
  5  9  1  0  0  0  0
  5 25  1  0  0  0  0
  5 26  1  0  0  0  0
  6  7  1  0  0  0  0
  6  8  1  0  0  0  0
  6 11  2  0  0  0  0
  7  9  1  0  0  0  0
  7 17  1  0  0  0  0
  7 18  1  0  0  0  0
  8 10  2  0  0  0  0
  8 12  1  0  0  0  0
  9 15  1  0  0  0  0
  9 19  1  1  0  0  0
 10 13  1  0  0  0  0
 11 20  1  0  0  0  0
 12 14  2  0  0  0  0
 12 22  1  0  0  0  0
 13 16  2  0  0  0  0
 14 16  1  0  0  0  0
 14 23  1  0  0  0  0
 16 24  1  0  0  0  0
M  END
>  <PUBCHEM_COMPOUND_CID>
3081936

>  <PUBCHEM_CONFORMER_RMSD>
0.6

>  <PUBCHEM_CONFORMER_DIVERSEORDER>
1
16
18
12
6
14
13
15
5
9
11
7
3
17
8
4
2
10

>  <PUBCHEM_MMFF94_PARTIAL_CHARGES>
23
1 -0.18
10 -0.15
11 -0.3
12 -0.15
13 0.18
14 -0.15
15 0.66
16 -0.15
2 -0.65
20 0.15
21 0.27
22 0.15
23 0.15
24 0.15
25 0.36
26 0.36
27 0.5
3 -0.57
4 0.03
5 -0.99
6 -0.18
7 0.18
9 0.33

>  <PUBCHEM_EFFECTIVE_ROTOR_COUNT>
3

>  <PUBCHEM_PHARMACOPHORE_FEATURES>
9
1 2 acceptor
1 3 acceptor
1 4 cation
1 4 donor
1 5 cation
1 5 donor
3 2 3 15 anion
5 4 6 8 10 11 rings
6 8 10 12 13 14 16 rings

>  <PUBCHEM_HEAVY_ATOM_COUNT>
16

>  <PUBCHEM_ATOM_DEF_STEREO_COUNT>
1

>  <PUBCHEM_ATOM_UDEF_STEREO_COUNT>
0

>  <PUBCHEM_BOND_DEF_STEREO_COUNT>
0

>  <PUBCHEM_BOND_UDEF_STEREO_COUNT>
0

>  <PUBCHEM_ISOTOPIC_ATOM_COUNT>
0

>  <PUBCHEM_COMPONENT_COUNT>
1

>  <PUBCHEM_CACTVS_TAUTO_COUNT>
1

>  <PUBCHEM_CONFORMER_ID>
002F06D000000001

>  <PUBCHEM_MMFF94_ENERGY>
21.1611

>  <PUBCHEM_FEATURE_SELFOVERLAP>
45.82

>  <PUBCHEM_SHAPE_FINGERPRINT>
11578080 2 17984388924466825000
124424 183 13686303465081884254
12553582 1 18411975828143526921
13221675 6 18412827958434911515
14576447 43 18340199790755604503
15375462 189 18409729534599286731
15775835 57 18334861610268107463
16945 1 18336255791022852248
18186145 218 18334289916019968276
20645476 183 18412826893626043687
21634736 98 18269552921791453590
22112679 90 18270106921196644770
232386 152 17775000210831931829
23388829 49 18336548222809405032
23402539 116 18410292511045120260
23402655 69 18335140847572397877
23559900 14 18339087094691280412
25 1 18186239536893781042
2748010 2 16032970615544397136
2871803 45 18192422198631418127
3312278 4 18412265042788448683
34934 24 18412260597376354768
528886 8 18407760339401988560
63268167 104 18335700520365318296
7364860 26 18058442273837337785
90525 40 18128818534492151421

>  <PUBCHEM_SHAPE_MULTIPOLES>
309.44
6.2
2.12
1.03
0.36
0.09
-0.23
0.5
-1.22
-0.4
0.18
0.26
0.17
-0.87

>  <PUBCHEM_SHAPE_SELFOVERLAP>
658.378

>  <PUBCHEM_SHAPE_VOLUME>
173.9

>  <PUBCHEM_COORDINATE_TYPE>
2
5
10

$$$$
3081936
 OpenBabel12092211553D

 27 28  0  0  1  0  0  0  0  0999 V2000
    4.3479    0.5117   -0.8201 Cl  0  0  0  0  0  0  0  0  0  0  0  0
   -1.9124   -1.5944    0.2376 O   0  0  0  0  0  0  0  0  0  0  0  0
   -2.7024   -1.1498   -1.8407 O   0  0  0  0  0  0  0  0  0  0  0  0
    1.4891    1.9059   -0.3135 N   0  0  0  0  0  0  0  0  0  0  0  0
   -4.1700    0.5147    0.4200 N   0  0  0  0  0  0  0  0  0  0  0  0
   -0.4072    1.0903    0.5027 C   0  0  0  0  0  0  0  0  0  0  0  0
   -1.8055    0.9898    0.9672 C   0  0  0  0  0  0  0  0  0  0  0  0
    0.5575    0.0444    0.4891 C   0  0  0  0  0  0  0  0  0  0  0  0
   -2.8152    0.5885   -0.1331 C   0  0  1  0  0  0  0  0  0  0  0  0
    1.7382    0.5824   -0.0274 C   0  0  0  0  0  0  0  0  0  0  0  0
    0.1953    2.2221    0.0036 C   0  0  0  0  0  0  0  0  0  0  0  0
    0.5395   -1.3127    0.8678 C   0  0  0  0  0  0  0  0  0  0  0  0
    2.9065   -0.1717   -0.1847 C   0  0  0  0  0  0  0  0  0  0  0  0
    1.7006   -2.0794    0.7161 C   0  0  0  0  0  0  0  0  0  0  0  0
   -2.4945   -0.7888   -0.6890 C   0  0  0  0  0  0  0  0  0  0  0  0
    2.8648   -1.5156    0.1977 C   0  0  0  0  0  0  0  0  0  0  0  0
   -2.1096    1.9553    1.3946 H   0  0  0  0  0  0  0  0  0  0  0  0
   -1.8588    0.2696    1.7955 H   0  0  0  0  0  0  0  0  0  0  0  0
   -2.8105    1.3169   -0.9525 H   0  0  0  0  0  0  0  0  0  0  0  0
   -0.1789    3.2239   -0.1557 H   0  0  0  0  0  0  0  0  0  0  0  0
    2.1643    2.5499   -0.7016 H   0  0  0  0  0  0  0  0  0  0  0  0
   -0.3558   -1.7691    1.2795 H   0  0  0  0  0  0  0  0  0  0  0  0
    1.6927   -3.1263    1.0079 H   0  0  0  0  0  0  0  0  0  0  0  0
    3.7486   -2.1417    0.0947 H   0  0  0  0  0  0  0  0  0  0  0  0
   -4.8359    0.3349   -0.3309 H   0  0  0  0  0  0  0  0  0  0  0  0
   -4.4259    1.4191    0.8147 H   0  0  0  0  0  0  0  0  0  0  0  0
   -1.7013   -2.4795   -0.1290 H   0  0  0  0  0  0  0  0  0  0  0  0
  1 13  1  0  0  0  0
  2 15  1  0  0  0  0
  2 27  1  0  0  0  0
  3 15  2  0  0  0  0
  4 10  1  0  0  0  0
  4 11  1  0  0  0  0
  4 21  1  0  0  0  0
  5  9  1  0  0  0  0
  5 25  1  0  0  0  0
  5 26  1  0  0  0  0
  6  7  1  0  0  0  0
  6  8  1  0  0  0  0
  6 11  2  0  0  0  0
  7  9  1  0  0  0  0
  7 17  1  0  0  0  0
  7 18  1  0  0  0  0
  8 10  2  0  0  0  0
  8 12  1  0  0  0  0
  9 15  1  0  0  0  0
  9 19  1  6  0  0  0
 10 13  1  0  0  0  0
 11 20  1  0  0  0  0
 12 14  2  0  0  0  0
 12 22  1  0  0  0  0
 13 16  2  0  0  0  0
 14 16  1  0  0  0  0
 14 23  1  0  0  0  0
 16 24  1  0  0  0  0
M  END
>  <PUBCHEM_COMPOUND_CID>
3081936

>  <PUBCHEM_CONFORMER_RMSD>
0.6

>  <PUBCHEM_CONFORMER_DIVERSEORDER>
1
16
18
12
6
14
13
15
5
9
11
7
3
17
8
4
2
10

>  <PUBCHEM_MMFF94_PARTIAL_CHARGES>
23
1 -0.18
10 -0.15
11 -0.3
12 -0.15
13 0.18
14 -0.15
15 0.66
16 -0.15
2 -0.65
20 0.15
21 0.27
22 0.15
23 0.15
24 0.15
25 0.36
26 0.36
27 0.5
3 -0.57
4 0.03
5 -0.99
6 -0.18
7 0.18
9 0.33

>  <PUBCHEM_EFFECTIVE_ROTOR_COUNT>
3

>  <PUBCHEM_PHARMACOPHORE_FEATURES>
9
1 2 acceptor
1 3 acceptor
1 4 cation
1 4 donor
1 5 cation
1 5 donor
3 2 3 15 anion
5 4 6 8 10 11 rings
6 8 10 12 13 14 16 rings

>  <PUBCHEM_HEAVY_ATOM_COUNT>
16

>  <PUBCHEM_ATOM_DEF_STEREO_COUNT>
1

>  <PUBCHEM_ATOM_UDEF_STEREO_COUNT>
0

>  <PUBCHEM_BOND_DEF_STEREO_COUNT>
0

>  <PUBCHEM_BOND_UDEF_STEREO_COUNT>
0

>  <PUBCHEM_ISOTOPIC_ATOM_COUNT>
0

>  <PUBCHEM_COMPONENT_COUNT>
1

>  <PUBCHEM_CACTVS_TAUTO_COUNT>
1

>  <PUBCHEM_CONFORMER_ID>
002F06D000000001

>  <PUBCHEM_MMFF94_ENERGY>
21.1611

>  <PUBCHEM_FEATURE_SELFOVERLAP>
45.82

>  <PUBCHEM_SHAPE_FINGERPRINT>
11578080 2 17984388924466825000
124424 183 13686303465081884254
12553582 1 18411975828143526921
13221675 6 18412827958434911515
14576447 43 18340199790755604503
15375462 189 18409729534599286731
15775835 57 18334861610268107463
16945 1 18336255791022852248
18186145 218 18334289916019968276
20645476 183 18412826893626043687
21634736 98 18269552921791453590
22112679 90 18270106921196644770
232386 152 17775000210831931829
23388829 49 18336548222809405032
23402539 116 18410292511045120260
23402655 69 18335140847572397877
23559900 14 18339087094691280412
25 1 18186239536893781042
2748010 2 16032970615544397136
2871803 45 18192422198631418127
3312278 4 18412265042788448683
34934 24 18412260597376354768
528886 8 18407760339401988560
63268167 104 18335700520365318296
7364860 26 18058442273837337785
90525 40 18128818534492151421

>  <PUBCHEM_SHAPE_MULTIPOLES>
309.44
6.2
2.12
1.03
0.36
0.09
-0.23
0.5
-1.22
-0.4
0.18
0.26
0.17
-0.87

>  <PUBCHEM_SHAPE_SELFOVERLAP>
658.378

>  <PUBCHEM_SHAPE_VOLUME>
173.9

>  <PUBCHEM_COORDINATE_TYPE>
2
5
10

$$$$
3081936
 OpenBabel12092211553D

 27 28  0  0  1  0  0  0  0  0999 V2000
    4.3479    0.5117   -0.8201 Cl  0  0  0  0  0  0  0  0  0  0  0  0
   -2.8965    4.5677    0.9824 O   0  0  0  0  0  0  0  0  0  0  0  0
   -2.0444    3.2662   -0.6672 O   0  0  0  0  0  0  0  0  0  0  0  0
    1.4891    1.9059   -0.3135 N   0  0  0  0  0  0  0  0  0  0  0  0
   -3.7659    2.1058    1.9809 N   0  0  0  0  0  0  0  0  0  0  0  0
   -0.4072    1.0903    0.5027 C   0  0  0  0  0  0  0  0  0  0  0  0
   -1.8055    0.9898    0.9672 C   0  0  0  0  0  0  0  0  0  0  0  0
    0.5575    0.0444    0.4891 C   0  0  0  0  0  0  0  0  0  0  0  0
   -2.3798    2.3026    1.5485 C   0  0  1  0  0  0  0  0  0  0  0  0
    1.7382    0.5824   -0.0274 C   0  0  0  0  0  0  0  0  0  0  0  0
    0.1953    2.2221    0.0036 C   0  0  0  0  0  0  0  0  0  0  0  0
    0.5395   -1.3127    0.8678 C   0  0  0  0  0  0  0  0  0  0  0  0
    2.9065   -0.1717   -0.1847 C   0  0  0  0  0  0  0  0  0  0  0  0
    1.7006   -2.0794    0.7161 C   0  0  0  0  0  0  0  0  0  0  0  0
   -2.4016    3.3990    0.4967 C   0  0  0  0  0  0  0  0  0  0  0  0
    2.8648   -1.5156    0.1977 C   0  0  0  0  0  0  0  0  0  0  0  0
   -1.8718    0.2030    1.7313 H   0  0  0  0  0  0  0  0  0  0  0  0
   -2.4374    0.6485    0.1355 H   0  0  0  0  0  0  0  0  0  0  0  0
   -1.7893    2.6409    2.4081 H   0  0  0  0  0  0  0  0  0  0  0  0
   -0.1789    3.2239   -0.1557 H   0  0  0  0  0  0  0  0  0  0  0  0
    2.1643    2.5499   -0.7016 H   0  0  0  0  0  0  0  0  0  0  0  0
   -0.3558   -1.7691    1.2795 H   0  0  0  0  0  0  0  0  0  0  0  0
    1.6927   -3.1263    1.0079 H   0  0  0  0  0  0  0  0  0  0  0  0
    3.7486   -2.1417    0.0947 H   0  0  0  0  0  0  0  0  0  0  0  0
   -4.1036    2.9513    2.4399 H   0  0  0  0  0  0  0  0  0  0  0  0
   -3.8013    1.3685    2.6839 H   0  0  0  0  0  0  0  0  0  0  0  0
   -2.9146    5.2695    0.2972 H   0  0  0  0  0  0  0  0  0  0  0  0
  1 13  1  0  0  0  0
  2 15  1  0  0  0  0
  2 27  1  0  0  0  0
  3 15  2  0  0  0  0
  4 10  1  0  0  0  0
  4 11  1  0  0  0  0
  4 21  1  0  0  0  0
  5  9  1  0  0  0  0
  5 25  1  0  0  0  0
  5 26  1  0  0  0  0
  6  7  1  0  0  0  0
  6  8  1  0  0  0  0
  6 11  2  0  0  0  0
  7  9  1  0  0  0  0
  7 17  1  0  0  0  0
  7 18  1  0  0  0  0
  8 10  2  0  0  0  0
  8 12  1  0  0  0  0
  9 15  1  0  0  0  0
  9 19  1  1  0  0  0
 10 13  1  0  0  0  0
 11 20  1  0  0  0  0
 12 14  2  0  0  0  0
 12 22  1  0  0  0  0
 13 16  2  0  0  0  0
 14 16  1  0  0  0  0
 14 23  1  0  0  0  0
 16 24  1  0  0  0  0
M  END
>  <PUBCHEM_COMPOUND_CID>
3081936

>  <PUBCHEM_CONFORMER_RMSD>
0.6

>  <PUBCHEM_CONFORMER_DIVERSEORDER>
1
16
18
12
6
14
13
15
5
9
11
7
3
17
8
4
2
10

>  <PUBCHEM_MMFF94_PARTIAL_CHARGES>
23
1 -0.18
10 -0.15
11 -0.3
12 -0.15
13 0.18
14 -0.15
15 0.66
16 -0.15
2 -0.65
20 0.15
21 0.27
22 0.15
23 0.15
24 0.15
25 0.36
26 0.36
27 0.5
3 -0.57
4 0.03
5 -0.99
6 -0.18
7 0.18
9 0.33

>  <PUBCHEM_EFFECTIVE_ROTOR_COUNT>
3

>  <PUBCHEM_PHARMACOPHORE_FEATURES>
9
1 2 acceptor
1 3 acceptor
1 4 cation
1 4 donor
1 5 cation
1 5 donor
3 2 3 15 anion
5 4 6 8 10 11 rings
6 8 10 12 13 14 16 rings

>  <PUBCHEM_HEAVY_ATOM_COUNT>
16

>  <PUBCHEM_ATOM_DEF_STEREO_COUNT>
1

>  <PUBCHEM_ATOM_UDEF_STEREO_COUNT>
0

>  <PUBCHEM_BOND_DEF_STEREO_COUNT>
0

>  <PUBCHEM_BOND_UDEF_STEREO_COUNT>
0

>  <PUBCHEM_ISOTOPIC_ATOM_COUNT>
0

>  <PUBCHEM_COMPONENT_COUNT>
1

>  <PUBCHEM_CACTVS_TAUTO_COUNT>
1

>  <PUBCHEM_CONFORMER_ID>
002F06D000000001

>  <PUBCHEM_MMFF94_ENERGY>
21.1611

>  <PUBCHEM_FEATURE_SELFOVERLAP>
45.82

>  <PUBCHEM_SHAPE_FINGERPRINT>
11578080 2 17984388924466825000
124424 183 13686303465081884254
12553582 1 18411975828143526921
13221675 6 18412827958434911515
14576447 43 18340199790755604503
15375462 189 18409729534599286731
15775835 57 18334861610268107463
16945 1 18336255791022852248
18186145 218 18334289916019968276
20645476 183 18412826893626043687
21634736 98 18269552921791453590
22112679 90 18270106921196644770
232386 152 17775000210831931829
23388829 49 18336548222809405032
23402539 116 18410292511045120260
23402655 69 18335140847572397877
23559900 14 18339087094691280412
25 1 18186239536893781042
2748010 2 16032970615544397136
2871803 45 18192422198631418127
3312278 4 18412265042788448683
34934 24 18412260597376354768
528886 8 18407760339401988560
63268167 104 18335700520365318296
7364860 26 18058442273837337785
90525 40 18128818534492151421

>  <PUBCHEM_SHAPE_MULTIPOLES>
309.44
6.2
2.12
1.03
0.36
0.09
-0.23
0.5
-1.22
-0.4
0.18
0.26
0.17
-0.87

>  <PUBCHEM_SHAPE_SELFOVERLAP>
658.378

>  <PUBCHEM_SHAPE_VOLUME>
173.9

>  <PUBCHEM_COORDINATE_TYPE>
2
5
10

$$$$
3081936
 OpenBabel12092211553D

 27 28  0  0  1  0  0  0  0  0999 V2000
    4.3479    0.5117   -0.8201 Cl  0  0  0  0  0  0  0  0  0  0  0  0
   -2.1171    3.5585    0.2543 O   0  0  0  0  0  0  0  0  0  0  0  0
   -2.9649    3.0821   -1.7940 O   0  0  0  0  0  0  0  0  0  0  0  0
    1.4891    1.9059   -0.3135 N   0  0  0  0  0  0  0  0  0  0  0  0
   -2.7327    0.3958   -1.2472 N   0  0  0  0  0  0  0  0  0  0  0  0
   -0.4072    1.0903    0.5027 C   0  0  0  0  0  0  0  0  0  0  0  0
   -1.8055    0.9898    0.9672 C   0  0  0  0  0  0  0  0  0  0  0  0
    0.5575    0.0444    0.4891 C   0  0  0  0  0  0  0  0  0  0  0  0
   -2.8613    1.3162   -0.1145 C   0  0  1  0  0  0  0  0  0  0  0  0
    1.7382    0.5824   -0.0274 C   0  0  0  0  0  0  0  0  0  0  0  0
    0.1953    2.2221    0.0036 C   0  0  0  0  0  0  0  0  0  0  0  0
    0.5395   -1.3127    0.8678 C   0  0  0  0  0  0  0  0  0  0  0  0
    2.9065   -0.1717   -0.1847 C   0  0  0  0  0  0  0  0  0  0  0  0
    1.7006   -2.0794    0.7161 C   0  0  0  0  0  0  0  0  0  0  0  0
   -2.6599    2.7179   -0.6652 C   0  0  0  0  0  0  0  0  0  0  0  0
    2.8648   -1.5156    0.1977 C   0  0  0  0  0  0  0  0  0  0  0  0
   -1.9477    1.6682    1.8198 H   0  0  0  0  0  0  0  0  0  0  0  0
   -1.9824   -0.0209    1.3606 H   0  0  0  0  0  0  0  0  0  0  0  0
   -3.8762    1.2320    0.2919 H   0  0  0  0  0  0  0  0  0  0  0  0
   -0.1789    3.2239   -0.1557 H   0  0  0  0  0  0  0  0  0  0  0  0
    2.1643    2.5499   -0.7016 H   0  0  0  0  0  0  0  0  0  0  0  0
   -0.3558   -1.7691    1.2795 H   0  0  0  0  0  0  0  0  0  0  0  0
    1.6927   -3.1263    1.0079 H   0  0  0  0  0  0  0  0  0  0  0  0
    3.7486   -2.1417    0.0947 H   0  0  0  0  0  0  0  0  0  0  0  0
   -3.4870    0.5650   -1.9120 H   0  0  0  0  0  0  0  0  0  0  0  0
   -2.8520   -0.5629   -0.9217 H   0  0  0  0  0  0  0  0  0  0  0  0
   -1.9960    4.4633   -0.1047 H   0  0  0  0  0  0  0  0  0  0  0  0
  1 13  1  0  0  0  0
  2 15  1  0  0  0  0
  2 27  1  0  0  0  0
  3 15  2  0  0  0  0
  4 10  1  0  0  0  0
  4 11  1  0  0  0  0
  4 21  1  0  0  0  0
  5  9  1  0  0  0  0
  5 25  1  0  0  0  0
  5 26  1  0  0  0  0
  6  7  1  0  0  0  0
  6  8  1  0  0  0  0
  6 11  2  0  0  0  0
  7  9  1  0  0  0  0
  7 17  1  0  0  0  0
  7 18  1  0  0  0  0
  8 10  2  0  0  0  0
  8 12  1  0  0  0  0
  9 15  1  0  0  0  0
  9 19  1  1  0  0  0
 10 13  1  0  0  0  0
 11 20  1  0  0  0  0
 12 14  2  0  0  0  0
 12 22  1  0  0  0  0
 13 16  2  0  0  0  0
 14 16  1  0  0  0  0
 14 23  1  0  0  0  0
 16 24  1  0  0  0  0
M  END
>  <PUBCHEM_COMPOUND_CID>
3081936

>  <PUBCHEM_CONFORMER_RMSD>
0.6

>  <PUBCHEM_CONFORMER_DIVERSEORDER>
1
16
18
12
6
14
13
15
5
9
11
7
3
17
8
4
2
10

>  <PUBCHEM_MMFF94_PARTIAL_CHARGES>
23
1 -0.18
10 -0.15
11 -0.3
12 -0.15
13 0.18
14 -0.15
15 0.66
16 -0.15
2 -0.65
20 0.15
21 0.27
22 0.15
23 0.15
24 0.15
25 0.36
26 0.36
27 0.5
3 -0.57
4 0.03
5 -0.99
6 -0.18
7 0.18
9 0.33

>  <PUBCHEM_EFFECTIVE_ROTOR_COUNT>
3

>  <PUBCHEM_PHARMACOPHORE_FEATURES>
9
1 2 acceptor
1 3 acceptor
1 4 cation
1 4 donor
1 5 cation
1 5 donor
3 2 3 15 anion
5 4 6 8 10 11 rings
6 8 10 12 13 14 16 rings

>  <PUBCHEM_HEAVY_ATOM_COUNT>
16

>  <PUBCHEM_ATOM_DEF_STEREO_COUNT>
1

>  <PUBCHEM_ATOM_UDEF_STEREO_COUNT>
0

>  <PUBCHEM_BOND_DEF_STEREO_COUNT>
0

>  <PUBCHEM_BOND_UDEF_STEREO_COUNT>
0

>  <PUBCHEM_ISOTOPIC_ATOM_COUNT>
0

>  <PUBCHEM_COMPONENT_COUNT>
1

>  <PUBCHEM_CACTVS_TAUTO_COUNT>
1

>  <PUBCHEM_CONFORMER_ID>
002F06D000000001

>  <PUBCHEM_MMFF94_ENERGY>
21.1611

>  <PUBCHEM_FEATURE_SELFOVERLAP>
45.82

>  <PUBCHEM_SHAPE_FINGERPRINT>
11578080 2 17984388924466825000
124424 183 13686303465081884254
12553582 1 18411975828143526921
13221675 6 18412827958434911515
14576447 43 18340199790755604503
15375462 189 18409729534599286731
15775835 57 18334861610268107463
16945 1 18336255791022852248
18186145 218 18334289916019968276
20645476 183 18412826893626043687
21634736 98 18269552921791453590
22112679 90 18270106921196644770
232386 152 17775000210831931829
23388829 49 18336548222809405032
23402539 116 18410292511045120260
23402655 69 18335140847572397877
23559900 14 18339087094691280412
25 1 18186239536893781042
2748010 2 16032970615544397136
2871803 45 18192422198631418127
3312278 4 18412265042788448683
34934 24 18412260597376354768
528886 8 18407760339401988560
63268167 104 18335700520365318296
7364860 26 18058442273837337785
90525 40 18128818534492151421

>  <PUBCHEM_SHAPE_MULTIPOLES>
309.44
6.2
2.12
1.03
0.36
0.09
-0.23
0.5
-1.22
-0.4
0.18
0.26
0.17
-0.87

>  <PUBCHEM_SHAPE_SELFOVERLAP>
658.378

>  <PUBCHEM_SHAPE_VOLUME>
173.9

>  <PUBCHEM_COORDINATE_TYPE>
2
5
10

$$$$
3081936
 OpenBabel12092211553D

 27 28  0  0  1  0  0  0  0  0999 V2000
    4.3479    0.5117   -0.8201 Cl  0  0  0  0  0  0  0  0  0  0  0  0
   -2.0363    0.4937    4.4157 O   0  0  0  0  0  0  0  0  0  0  0  0
   -0.0214    0.4449    3.3769 O   0  0  0  0  0  0  0  0  0  0  0  0
    1.4891    1.9059   -0.3135 N   0  0  0  0  0  0  0  0  0  0  0  0
   -3.4426   -0.0797    2.4812 N   0  0  0  0  0  0  0  0  0  0  0  0
   -0.4072    1.0903    0.5027 C   0  0  0  0  0  0  0  0  0  0  0  0
   -1.8055    0.9898    0.9672 C   0  0  0  0  0  0  0  0  0  0  0  0
    0.5575    0.0444    0.4891 C   0  0  0  0  0  0  0  0  0  0  0  0
   -2.0315   -0.0519    2.0875 C   0  0  1  0  0  0  0  0  0  0  0  0
    1.7382    0.5824   -0.0274 C   0  0  0  0  0  0  0  0  0  0  0  0
    0.1953    2.2221    0.0036 C   0  0  0  0  0  0  0  0  0  0  0  0
    0.5395   -1.3127    0.8678 C   0  0  0  0  0  0  0  0  0  0  0  0
    2.9065   -0.1717   -0.1847 C   0  0  0  0  0  0  0  0  0  0  0  0
    1.7006   -2.0794    0.7161 C   0  0  0  0  0  0  0  0  0  0  0  0
   -1.2375    0.3076    3.3322 C   0  0  0  0  0  0  0  0  0  0  0  0
    2.8648   -1.5156    0.1977 C   0  0  0  0  0  0  0  0  0  0  0  0
   -2.4482    0.7383    0.1122 H   0  0  0  0  0  0  0  0  0  0  0  0
   -2.1427    1.9778    1.3103 H   0  0  0  0  0  0  0  0  0  0  0  0
   -1.7412   -1.0548    1.7532 H   0  0  0  0  0  0  0  0  0  0  0  0
   -0.1789    3.2239   -0.1557 H   0  0  0  0  0  0  0  0  0  0  0  0
    2.1643    2.5499   -0.7016 H   0  0  0  0  0  0  0  0  0  0  0  0
   -0.3558   -1.7691    1.2795 H   0  0  0  0  0  0  0  0  0  0  0  0
    1.6927   -3.1263    1.0079 H   0  0  0  0  0  0  0  0  0  0  0  0
    3.7486   -2.1417    0.0947 H   0  0  0  0  0  0  0  0  0  0  0  0
   -3.5938   -0.8283    3.1567 H   0  0  0  0  0  0  0  0  0  0  0  0
   -4.0172   -0.3090    1.6711 H   0  0  0  0  0  0  0  0  0  0  0  0
   -1.5188    0.7323    5.2142 H   0  0  0  0  0  0  0  0  0  0  0  0
  1 13  1  0  0  0  0
  2 15  1  0  0  0  0
  2 27  1  0  0  0  0
  3 15  2  0  0  0  0
  4 10  1  0  0  0  0
  4 11  1  0  0  0  0
  4 21  1  0  0  0  0
  5  9  1  0  0  0  0
  5 25  1  0  0  0  0
  5 26  1  0  0  0  0
  6  7  1  0  0  0  0
  6  8  1  0  0  0  0
  6 11  2  0  0  0  0
  7  9  1  0  0  0  0
  7 17  1  0  0  0  0
  7 18  1  0  0  0  0
  8 10  2  0  0  0  0
  8 12  1  0  0  0  0
  9 15  1  0  0  0  0
  9 19  1  6  0  0  0
 10 13  1  0  0  0  0
 11 20  1  0  0  0  0
 12 14  2  0  0  0  0
 12 22  1  0  0  0  0
 13 16  2  0  0  0  0
 14 16  1  0  0  0  0
 14 23  1  0  0  0  0
 16 24  1  0  0  0  0
M  END
>  <PUBCHEM_COMPOUND_CID>
3081936

>  <PUBCHEM_CONFORMER_RMSD>
0.6

>  <PUBCHEM_CONFORMER_DIVERSEORDER>
1
16
18
12
6
14
13
15
5
9
11
7
3
17
8
4
2
10

>  <PUBCHEM_MMFF94_PARTIAL_CHARGES>
23
1 -0.18
10 -0.15
11 -0.3
12 -0.15
13 0.18
14 -0.15
15 0.66
16 -0.15
2 -0.65
20 0.15
21 0.27
22 0.15
23 0.15
24 0.15
25 0.36
26 0.36
27 0.5
3 -0.57
4 0.03
5 -0.99
6 -0.18
7 0.18
9 0.33

>  <PUBCHEM_EFFECTIVE_ROTOR_COUNT>
3

>  <PUBCHEM_PHARMACOPHORE_FEATURES>
9
1 2 acceptor
1 3 acceptor
1 4 cation
1 4 donor
1 5 cation
1 5 donor
3 2 3 15 anion
5 4 6 8 10 11 rings
6 8 10 12 13 14 16 rings

>  <PUBCHEM_HEAVY_ATOM_COUNT>
16

>  <PUBCHEM_ATOM_DEF_STEREO_COUNT>
1

>  <PUBCHEM_ATOM_UDEF_STEREO_COUNT>
0

>  <PUBCHEM_BOND_DEF_STEREO_COUNT>
0

>  <PUBCHEM_BOND_UDEF_STEREO_COUNT>
0

>  <PUBCHEM_ISOTOPIC_ATOM_COUNT>
0

>  <PUBCHEM_COMPONENT_COUNT>
1

>  <PUBCHEM_CACTVS_TAUTO_COUNT>
1

>  <PUBCHEM_CONFORMER_ID>
002F06D000000001

>  <PUBCHEM_MMFF94_ENERGY>
21.1611

>  <PUBCHEM_FEATURE_SELFOVERLAP>
45.82

>  <PUBCHEM_SHAPE_FINGERPRINT>
11578080 2 17984388924466825000
124424 183 13686303465081884254
12553582 1 18411975828143526921
13221675 6 18412827958434911515
14576447 43 18340199790755604503
15375462 189 18409729534599286731
15775835 57 18334861610268107463
16945 1 18336255791022852248
18186145 218 18334289916019968276
20645476 183 18412826893626043687
21634736 98 18269552921791453590
22112679 90 18270106921196644770
232386 152 17775000210831931829
23388829 49 18336548222809405032
23402539 116 18410292511045120260
23402655 69 18335140847572397877
23559900 14 18339087094691280412
25 1 18186239536893781042
2748010 2 16032970615544397136
2871803 45 18192422198631418127
3312278 4 18412265042788448683
34934 24 18412260597376354768
528886 8 18407760339401988560
63268167 104 18335700520365318296
7364860 26 18058442273837337785
90525 40 18128818534492151421

>  <PUBCHEM_SHAPE_MULTIPOLES>
309.44
6.2
2.12
1.03
0.36
0.09
-0.23
0.5
-1.22
-0.4
0.18
0.26
0.17
-0.87

>  <PUBCHEM_SHAPE_SELFOVERLAP>
658.378

>  <PUBCHEM_SHAPE_VOLUME>
173.9

>  <PUBCHEM_COORDINATE_TYPE>
2
5
10

$$$$
3081936
 OpenBabel12092211553D

 27 28  0  0  1  0  0  0  0  0999 V2000
    4.3479    0.5117   -0.8201 Cl  0  0  0  0  0  0  0  0  0  0  0  0
    0.0986    0.3648    3.0909 O   0  0  0  0  0  0  0  0  0  0  0  0
   -1.7172    0.5037    4.4418 O   0  0  0  0  0  0  0  0  0  0  0  0
    1.4891    1.9059   -0.3135 N   0  0  0  0  0  0  0  0  0  0  0  0
   -3.4426   -0.0797    2.4812 N   0  0  0  0  0  0  0  0  0  0  0  0
   -0.4072    1.0903    0.5027 C   0  0  0  0  0  0  0  0  0  0  0  0
   -1.8055    0.9898    0.9672 C   0  0  0  0  0  0  0  0  0  0  0  0
    0.5575    0.0444    0.4891 C   0  0  0  0  0  0  0  0  0  0  0  0
   -2.0315   -0.0519    2.0875 C   0  0  1  0  0  0  0  0  0  0  0  0
    1.7382    0.5824   -0.0274 C   0  0  0  0  0  0  0  0  0  0  0  0
    0.1953    2.2221    0.0036 C   0  0  0  0  0  0  0  0  0  0  0  0
    0.5395   -1.3127    0.8678 C   0  0  0  0  0  0  0  0  0  0  0  0
    2.9065   -0.1717   -0.1847 C   0  0  0  0  0  0  0  0  0  0  0  0
    1.7006   -2.0794    0.7161 C   0  0  0  0  0  0  0  0  0  0  0  0
   -1.2375    0.3076    3.3322 C   0  0  0  0  0  0  0  0  0  0  0  0
    2.8648   -1.5156    0.1977 C   0  0  0  0  0  0  0  0  0  0  0  0
   -2.4482    0.7383    0.1122 H   0  0  0  0  0  0  0  0  0  0  0  0
   -2.1427    1.9778    1.3103 H   0  0  0  0  0  0  0  0  0  0  0  0
   -1.7412   -1.0548    1.7532 H   0  0  0  0  0  0  0  0  0  0  0  0
   -0.1789    3.2239   -0.1557 H   0  0  0  0  0  0  0  0  0  0  0  0
    2.1643    2.5499   -0.7016 H   0  0  0  0  0  0  0  0  0  0  0  0
   -0.3558   -1.7691    1.2795 H   0  0  0  0  0  0  0  0  0  0  0  0
    1.6927   -3.1263    1.0079 H   0  0  0  0  0  0  0  0  0  0  0  0
    3.7486   -2.1417    0.0947 H   0  0  0  0  0  0  0  0  0  0  0  0
   -3.5938   -0.8283    3.1567 H   0  0  0  0  0  0  0  0  0  0  0  0
   -4.0172   -0.3090    1.6711 H   0  0  0  0  0  0  0  0  0  0  0  0
    0.6064    0.5903    3.8994 H   0  0  0  0  0  0  0  0  0  0  0  0
  1 13  1  0  0  0  0
  2 15  1  0  0  0  0
  2 27  1  0  0  0  0
  3 15  2  0  0  0  0
  4 10  1  0  0  0  0
  4 11  1  0  0  0  0
  4 21  1  0  0  0  0
  5  9  1  0  0  0  0
  5 25  1  0  0  0  0
  5 26  1  0  0  0  0
  6  7  1  0  0  0  0
  6  8  1  0  0  0  0
  6 11  2  0  0  0  0
  7  9  1  0  0  0  0
  7 17  1  0  0  0  0
  7 18  1  0  0  0  0
  8 10  2  0  0  0  0
  8 12  1  0  0  0  0
  9 15  1  0  0  0  0
  9 19  1  6  0  0  0
 10 13  1  0  0  0  0
 11 20  1  0  0  0  0
 12 14  2  0  0  0  0
 12 22  1  0  0  0  0
 13 16  2  0  0  0  0
 14 16  1  0  0  0  0
 14 23  1  0  0  0  0
 16 24  1  0  0  0  0
M  END
>  <PUBCHEM_COMPOUND_CID>
3081936

>  <PUBCHEM_CONFORMER_RMSD>
0.6

>  <PUBCHEM_CONFORMER_DIVERSEORDER>
1
16
18
12
6
14
13
15
5
9
11
7
3
17
8
4
2
10

>  <PUBCHEM_MMFF94_PARTIAL_CHARGES>
23
1 -0.18
10 -0.15
11 -0.3
12 -0.15
13 0.18
14 -0.15
15 0.66
16 -0.15
2 -0.65
20 0.15
21 0.27
22 0.15
23 0.15
24 0.15
25 0.36
26 0.36
27 0.5
3 -0.57
4 0.03
5 -0.99
6 -0.18
7 0.18
9 0.33

>  <PUBCHEM_EFFECTIVE_ROTOR_COUNT>
3

>  <PUBCHEM_PHARMACOPHORE_FEATURES>
9
1 2 acceptor
1 3 acceptor
1 4 cation
1 4 donor
1 5 cation
1 5 donor
3 2 3 15 anion
5 4 6 8 10 11 rings
6 8 10 12 13 14 16 rings

>  <PUBCHEM_HEAVY_ATOM_COUNT>
16

>  <PUBCHEM_ATOM_DEF_STEREO_COUNT>
1

>  <PUBCHEM_ATOM_UDEF_STEREO_COUNT>
0

>  <PUBCHEM_BOND_DEF_STEREO_COUNT>
0

>  <PUBCHEM_BOND_UDEF_STEREO_COUNT>
0

>  <PUBCHEM_ISOTOPIC_ATOM_COUNT>
0

>  <PUBCHEM_COMPONENT_COUNT>
1

>  <PUBCHEM_CACTVS_TAUTO_COUNT>
1

>  <PUBCHEM_CONFORMER_ID>
002F06D000000001

>  <PUBCHEM_MMFF94_ENERGY>
21.1611

>  <PUBCHEM_FEATURE_SELFOVERLAP>
45.82

>  <PUBCHEM_SHAPE_FINGERPRINT>
11578080 2 17984388924466825000
124424 183 13686303465081884254
12553582 1 18411975828143526921
13221675 6 18412827958434911515
14576447 43 18340199790755604503
15375462 189 18409729534599286731
15775835 57 18334861610268107463
16945 1 18336255791022852248
18186145 218 18334289916019968276
20645476 183 18412826893626043687
21634736 98 18269552921791453590
22112679 90 18270106921196644770
232386 152 17775000210831931829
23388829 49 18336548222809405032
23402539 116 18410292511045120260
23402655 69 18335140847572397877
23559900 14 18339087094691280412
25 1 18186239536893781042
2748010 2 16032970615544397136
2871803 45 18192422198631418127
3312278 4 18412265042788448683
34934 24 18412260597376354768
528886 8 18407760339401988560
63268167 104 18335700520365318296
7364860 26 18058442273837337785
90525 40 18128818534492151421

>  <PUBCHEM_SHAPE_MULTIPOLES>
309.44
6.2
2.12
1.03
0.36
0.09
-0.23
0.5
-1.22
-0.4
0.18
0.26
0.17
-0.87

>  <PUBCHEM_SHAPE_SELFOVERLAP>
658.378

>  <PUBCHEM_SHAPE_VOLUME>
173.9

>  <PUBCHEM_COORDINATE_TYPE>
2
5
10

$$$$
3081936
 OpenBabel12092211553D

 27 28  0  0  1  0  0  0  0  0999 V2000
    4.3479    0.5117   -0.8201 Cl  0  0  0  0  0  0  0  0  0  0  0  0
   -2.8342   -0.8387   -2.0516 O   0  0  0  0  0  0  0  0  0  0  0  0
   -2.5782    1.3966   -1.7705 O   0  0  0  0  0  0  0  0  0  0  0  0
    1.4891    1.9059   -0.3135 N   0  0  0  0  0  0  0  0  0  0  0  0
   -2.0818   -1.3831    0.3273 N   0  0  0  0  0  0  0  0  0  0  0  0
   -0.4072    1.0903    0.5027 C   0  0  0  0  0  0  0  0  0  0  0  0
   -1.8055    0.9898    0.9672 C   0  0  0  0  0  0  0  0  0  0  0  0
    0.5575    0.0444    0.4891 C   0  0  0  0  0  0  0  0  0  0  0  0
   -2.6603   -0.0432    0.1968 C   0  0  1  0  0  0  0  0  0  0  0  0
    1.7382    0.5824   -0.0274 C   0  0  0  0  0  0  0  0  0  0  0  0
    0.1953    2.2221    0.0036 C   0  0  0  0  0  0  0  0  0  0  0  0
    0.5395   -1.3127    0.8678 C   0  0  0  0  0  0  0  0  0  0  0  0
    2.9065   -0.1717   -0.1847 C   0  0  0  0  0  0  0  0  0  0  0  0
    1.7006   -2.0794    0.7161 C   0  0  0  0  0  0  0  0  0  0  0  0
   -2.6914    0.2766   -1.2884 C   0  0  0  0  0  0  0  0  0  0  0  0
    2.8648   -1.5156    0.1977 C   0  0  0  0  0  0  0  0  0  0  0  0
   -2.2805    1.9772    0.8850 H   0  0  0  0  0  0  0  0  0  0  0  0
   -1.8122    0.7466    2.0388 H   0  0  0  0  0  0  0  0  0  0  0  0
   -3.6868   -0.0657    0.5812 H   0  0  0  0  0  0  0  0  0  0  0  0
   -0.1789    3.2239   -0.1557 H   0  0  0  0  0  0  0  0  0  0  0  0
    2.1643    2.5499   -0.7016 H   0  0  0  0  0  0  0  0  0  0  0  0
   -0.3558   -1.7691    1.2795 H   0  0  0  0  0  0  0  0  0  0  0  0
    1.6927   -3.1263    1.0079 H   0  0  0  0  0  0  0  0  0  0  0  0
    3.7486   -2.1417    0.0947 H   0  0  0  0  0  0  0  0  0  0  0  0
   -2.6995   -2.0657   -0.1107 H   0  0  0  0  0  0  0  0  0  0  0  0
   -2.0324   -1.6375    1.3132 H   0  0  0  0  0  0  0  0  0  0  0  0
   -2.8466   -0.6267   -3.0093 H   0  0  0  0  0  0  0  0  0  0  0  0
  1 13  1  0  0  0  0
  2 15  1  0  0  0  0
  2 27  1  0  0  0  0
  3 15  2  0  0  0  0
  4 10  1  0  0  0  0
  4 11  1  0  0  0  0
  4 21  1  0  0  0  0
  5  9  1  0  0  0  0
  5 25  1  0  0  0  0
  5 26  1  0  0  0  0
  6  7  1  0  0  0  0
  6  8  1  0  0  0  0
  6 11  2  0  0  0  0
  7  9  1  0  0  0  0
  7 17  1  0  0  0  0
  7 18  1  0  0  0  0
  8 10  2  0  0  0  0
  8 12  1  0  0  0  0
  9 15  1  0  0  0  0
  9 19  1  1  0  0  0
 10 13  1  0  0  0  0
 11 20  1  0  0  0  0
 12 14  2  0  0  0  0
 12 22  1  0  0  0  0
 13 16  2  0  0  0  0
 14 16  1  0  0  0  0
 14 23  1  0  0  0  0
 16 24  1  0  0  0  0
M  END
>  <PUBCHEM_COMPOUND_CID>
3081936

>  <PUBCHEM_CONFORMER_RMSD>
0.6

>  <PUBCHEM_CONFORMER_DIVERSEORDER>
1
16
18
12
6
14
13
15
5
9
11
7
3
17
8
4
2
10

>  <PUBCHEM_MMFF94_PARTIAL_CHARGES>
23
1 -0.18
10 -0.15
11 -0.3
12 -0.15
13 0.18
14 -0.15
15 0.66
16 -0.15
2 -0.65
20 0.15
21 0.27
22 0.15
23 0.15
24 0.15
25 0.36
26 0.36
27 0.5
3 -0.57
4 0.03
5 -0.99
6 -0.18
7 0.18
9 0.33

>  <PUBCHEM_EFFECTIVE_ROTOR_COUNT>
3

>  <PUBCHEM_PHARMACOPHORE_FEATURES>
9
1 2 acceptor
1 3 acceptor
1 4 cation
1 4 donor
1 5 cation
1 5 donor
3 2 3 15 anion
5 4 6 8 10 11 rings
6 8 10 12 13 14 16 rings

>  <PUBCHEM_HEAVY_ATOM_COUNT>
16

>  <PUBCHEM_ATOM_DEF_STEREO_COUNT>
1

>  <PUBCHEM_ATOM_UDEF_STEREO_COUNT>
0

>  <PUBCHEM_BOND_DEF_STEREO_COUNT>
0

>  <PUBCHEM_BOND_UDEF_STEREO_COUNT>
0

>  <PUBCHEM_ISOTOPIC_ATOM_COUNT>
0

>  <PUBCHEM_COMPONENT_COUNT>
1

>  <PUBCHEM_CACTVS_TAUTO_COUNT>
1

>  <PUBCHEM_CONFORMER_ID>
002F06D000000001

>  <PUBCHEM_MMFF94_ENERGY>
21.1611

>  <PUBCHEM_FEATURE_SELFOVERLAP>
45.82

>  <PUBCHEM_SHAPE_FINGERPRINT>
11578080 2 17984388924466825000
124424 183 13686303465081884254
12553582 1 18411975828143526921
13221675 6 18412827958434911515
14576447 43 18340199790755604503
15375462 189 18409729534599286731
15775835 57 18334861610268107463
16945 1 18336255791022852248
18186145 218 18334289916019968276
20645476 183 18412826893626043687
21634736 98 18269552921791453590
22112679 90 18270106921196644770
232386 152 17775000210831931829
23388829 49 18336548222809405032
23402539 116 18410292511045120260
23402655 69 18335140847572397877
23559900 14 18339087094691280412
25 1 18186239536893781042
2748010 2 16032970615544397136
2871803 45 18192422198631418127
3312278 4 18412265042788448683
34934 24 18412260597376354768
528886 8 18407760339401988560
63268167 104 18335700520365318296
7364860 26 18058442273837337785
90525 40 18128818534492151421

>  <PUBCHEM_SHAPE_MULTIPOLES>
309.44
6.2
2.12
1.03
0.36
0.09
-0.23
0.5
-1.22
-0.4
0.18
0.26
0.17
-0.87

>  <PUBCHEM_SHAPE_SELFOVERLAP>
658.378

>  <PUBCHEM_SHAPE_VOLUME>
173.9

>  <PUBCHEM_COORDINATE_TYPE>
2
5
10

$$$$
3081936
 OpenBabel12092211553D

 27 28  0  0  1  0  0  0  0  0999 V2000
    4.3479    0.5117   -0.8201 Cl  0  0  0  0  0  0  0  0  0  0  0  0
   -1.6864    3.5657   -0.9541 O   0  0  0  0  0  0  0  0  0  0  0  0
   -3.6268    2.4632   -1.3552 O   0  0  0  0  0  0  0  0  0  0  0  0
    1.4891    1.9059   -0.3135 N   0  0  0  0  0  0  0  0  0  0  0  0
   -3.9795    2.1088    1.3385 N   0  0  0  0  0  0  0  0  0  0  0  0
   -0.4072    1.0903    0.5027 C   0  0  0  0  0  0  0  0  0  0  0  0
   -1.8055    0.9898    0.9672 C   0  0  0  0  0  0  0  0  0  0  0  0
    0.5575    0.0444    0.4891 C   0  0  0  0  0  0  0  0  0  0  0  0
   -2.6100    2.3058    0.8564 C   0  0  1  0  0  0  0  0  0  0  0  0
    1.7382    0.5824   -0.0274 C   0  0  0  0  0  0  0  0  0  0  0  0
    0.1953    2.2221    0.0036 C   0  0  0  0  0  0  0  0  0  0  0  0
    0.5395   -1.3127    0.8678 C   0  0  0  0  0  0  0  0  0  0  0  0
    2.9065   -0.1717   -0.1847 C   0  0  0  0  0  0  0  0  0  0  0  0
    1.7006   -2.0794    0.7161 C   0  0  0  0  0  0  0  0  0  0  0  0
   -2.7166    2.7575   -0.5905 C   0  0  0  0  0  0  0  0  0  0  0  0
    2.8648   -1.5156    0.1977 C   0  0  0  0  0  0  0  0  0  0  0  0
   -1.8104    0.6565    2.0142 H   0  0  0  0  0  0  0  0  0  0  0  0
   -2.3164    0.1978    0.4022 H   0  0  0  0  0  0  0  0  0  0  0  0
   -2.1414    3.1014    1.4477 H   0  0  0  0  0  0  0  0  0  0  0  0
   -0.1789    3.2239   -0.1557 H   0  0  0  0  0  0  0  0  0  0  0  0
    2.1643    2.5499   -0.7016 H   0  0  0  0  0  0  0  0  0  0  0  0
   -0.3558   -1.7691    1.2795 H   0  0  0  0  0  0  0  0  0  0  0  0
    1.6927   -3.1263    1.0079 H   0  0  0  0  0  0  0  0  0  0  0  0
    3.7486   -2.1417    0.0947 H   0  0  0  0  0  0  0  0  0  0  0  0
   -4.4721    3.0014    1.3414 H   0  0  0  0  0  0  0  0  0  0  0  0
   -3.9568    1.7947    2.3080 H   0  0  0  0  0  0  0  0  0  0  0  0
   -1.7645    3.8596   -1.8867 H   0  0  0  0  0  0  0  0  0  0  0  0
  1 13  1  0  0  0  0
  2 15  1  0  0  0  0
  2 27  1  0  0  0  0
  3 15  2  0  0  0  0
  4 10  1  0  0  0  0
  4 11  1  0  0  0  0
  4 21  1  0  0  0  0
  5  9  1  0  0  0  0
  5 25  1  0  0  0  0
  5 26  1  0  0  0  0
  6  7  1  0  0  0  0
  6  8  1  0  0  0  0
  6 11  2  0  0  0  0
  7  9  1  0  0  0  0
  7 17  1  0  0  0  0
  7 18  1  0  0  0  0
  8 10  2  0  0  0  0
  8 12  1  0  0  0  0
  9 15  1  0  0  0  0
  9 19  1  1  0  0  0
 10 13  1  0  0  0  0
 11 20  1  0  0  0  0
 12 14  2  0  0  0  0
 12 22  1  0  0  0  0
 13 16  2  0  0  0  0
 14 16  1  0  0  0  0
 14 23  1  0  0  0  0
 16 24  1  0  0  0  0
M  END
>  <PUBCHEM_COMPOUND_CID>
3081936

>  <PUBCHEM_CONFORMER_RMSD>
0.6

>  <PUBCHEM_CONFORMER_DIVERSEORDER>
1
16
18
12
6
14
13
15
5
9
11
7
3
17
8
4
2
10

>  <PUBCHEM_MMFF94_PARTIAL_CHARGES>
23
1 -0.18
10 -0.15
11 -0.3
12 -0.15
13 0.18
14 -0.15
15 0.66
16 -0.15
2 -0.65
20 0.15
21 0.27
22 0.15
23 0.15
24 0.15
25 0.36
26 0.36
27 0.5
3 -0.57
4 0.03
5 -0.99
6 -0.18
7 0.18
9 0.33

>  <PUBCHEM_EFFECTIVE_ROTOR_COUNT>
3

>  <PUBCHEM_PHARMACOPHORE_FEATURES>
9
1 2 acceptor
1 3 acceptor
1 4 cation
1 4 donor
1 5 cation
1 5 donor
3 2 3 15 anion
5 4 6 8 10 11 rings
6 8 10 12 13 14 16 rings

>  <PUBCHEM_HEAVY_ATOM_COUNT>
16

>  <PUBCHEM_ATOM_DEF_STEREO_COUNT>
1

>  <PUBCHEM_ATOM_UDEF_STEREO_COUNT>
0

>  <PUBCHEM_BOND_DEF_STEREO_COUNT>
0

>  <PUBCHEM_BOND_UDEF_STEREO_COUNT>
0

>  <PUBCHEM_ISOTOPIC_ATOM_COUNT>
0

>  <PUBCHEM_COMPONENT_COUNT>
1

>  <PUBCHEM_CACTVS_TAUTO_COUNT>
1

>  <PUBCHEM_CONFORMER_ID>
002F06D000000001

>  <PUBCHEM_MMFF94_ENERGY>
21.1611

>  <PUBCHEM_FEATURE_SELFOVERLAP>
45.82

>  <PUBCHEM_SHAPE_FINGERPRINT>
11578080 2 17984388924466825000
124424 183 13686303465081884254
12553582 1 18411975828143526921
13221675 6 18412827958434911515
14576447 43 18340199790755604503
15375462 189 18409729534599286731
15775835 57 18334861610268107463
16945 1 18336255791022852248
18186145 218 18334289916019968276
20645476 183 18412826893626043687
21634736 98 18269552921791453590
22112679 90 18270106921196644770
232386 152 17775000210831931829
23388829 49 18336548222809405032
23402539 116 18410292511045120260
23402655 69 18335140847572397877
23559900 14 18339087094691280412
25 1 18186239536893781042
2748010 2 16032970615544397136
2871803 45 18192422198631418127
3312278 4 18412265042788448683
34934 24 18412260597376354768
528886 8 18407760339401988560
63268167 104 18335700520365318296
7364860 26 18058442273837337785
90525 40 18128818534492151421

>  <PUBCHEM_SHAPE_MULTIPOLES>
309.44
6.2
2.12
1.03
0.36
0.09
-0.23
0.5
-1.22
-0.4
0.18
0.26
0.17
-0.87

>  <PUBCHEM_SHAPE_SELFOVERLAP>
658.378

>  <PUBCHEM_SHAPE_VOLUME>
173.9

>  <PUBCHEM_COORDINATE_TYPE>
2
5
10

$$$$
3081936
 OpenBabel12092211553D

 27 28  0  0  1  0  0  0  0  0999 V2000
    4.3479    0.5117   -0.8201 Cl  0  0  0  0  0  0  0  0  0  0  0  0
   -3.6201   -0.4696    3.8118 O   0  0  0  0  0  0  0  0  0  0  0  0
   -4.3402    1.0769    2.3182 O   0  0  0  0  0  0  0  0  0  0  0  0
    1.4891    1.9059   -0.3135 N   0  0  0  0  0  0  0  0  0  0  0  0
   -1.3474   -0.7362    2.6781 N   0  0  0  0  0  0  0  0  0  0  0  0
   -0.4072    1.0903    0.5027 C   0  0  0  0  0  0  0  0  0  0  0  0
   -1.8055    0.9898    0.9672 C   0  0  0  0  0  0  0  0  0  0  0  0
    0.5575    0.0444    0.4891 C   0  0  0  0  0  0  0  0  0  0  0  0
   -1.9564    0.5767    2.4497 C   0  0  1  0  0  0  0  0  0  0  0  0
    1.7382    0.5824   -0.0274 C   0  0  0  0  0  0  0  0  0  0  0  0
    0.1953    2.2221    0.0036 C   0  0  0  0  0  0  0  0  0  0  0  0
    0.5395   -1.3127    0.8678 C   0  0  0  0  0  0  0  0  0  0  0  0
    2.9065   -0.1717   -0.1847 C   0  0  0  0  0  0  0  0  0  0  0  0
    1.7006   -2.0794    0.7161 C   0  0  0  0  0  0  0  0  0  0  0  0
   -3.4215    0.4515    2.8326 C   0  0  0  0  0  0  0  0  0  0  0  0
    2.8648   -1.5156    0.1977 C   0  0  0  0  0  0  0  0  0  0  0  0
   -2.3387    0.2629    0.3389 H   0  0  0  0  0  0  0  0  0  0  0  0
   -2.3102    1.9515    0.8003 H   0  0  0  0  0  0  0  0  0  0  0  0
   -1.4734    1.3066    3.1100 H   0  0  0  0  0  0  0  0  0  0  0  0
   -0.1789    3.2239   -0.1557 H   0  0  0  0  0  0  0  0  0  0  0  0
    2.1643    2.5499   -0.7016 H   0  0  0  0  0  0  0  0  0  0  0  0
   -0.3558   -1.7691    1.2795 H   0  0  0  0  0  0  0  0  0  0  0  0
    1.6927   -3.1263    1.0079 H   0  0  0  0  0  0  0  0  0  0  0  0
    3.7486   -2.1417    0.0947 H   0  0  0  0  0  0  0  0  0  0  0  0
   -1.3766   -0.9577    3.6729 H   0  0  0  0  0  0  0  0  0  0  0  0
   -0.3606   -0.7021    2.4245 H   0  0  0  0  0  0  0  0  0  0  0  0
   -4.5683   -0.5510    4.0497 H   0  0  0  0  0  0  0  0  0  0  0  0
  1 13  1  0  0  0  0
  2 15  1  0  0  0  0
  2 27  1  0  0  0  0
  3 15  2  0  0  0  0
  4 10  1  0  0  0  0
  4 11  1  0  0  0  0
  4 21  1  0  0  0  0
  5  9  1  0  0  0  0
  5 25  1  0  0  0  0
  5 26  1  0  0  0  0
  6  7  1  0  0  0  0
  6  8  1  0  0  0  0
  6 11  2  0  0  0  0
  7  9  1  0  0  0  0
  7 17  1  0  0  0  0
  7 18  1  0  0  0  0
  8 10  2  0  0  0  0
  8 12  1  0  0  0  0
  9 15  1  0  0  0  0
  9 19  1  1  0  0  0
 10 13  1  0  0  0  0
 11 20  1  0  0  0  0
 12 14  2  0  0  0  0
 12 22  1  0  0  0  0
 13 16  2  0  0  0  0
 14 16  1  0  0  0  0
 14 23  1  0  0  0  0
 16 24  1  0  0  0  0
M  END
>  <PUBCHEM_COMPOUND_CID>
3081936

>  <PUBCHEM_CONFORMER_RMSD>
0.6

>  <PUBCHEM_CONFORMER_DIVERSEORDER>
1
16
18
12
6
14
13
15
5
9
11
7
3
17
8
4
2
10

>  <PUBCHEM_MMFF94_PARTIAL_CHARGES>
23
1 -0.18
10 -0.15
11 -0.3
12 -0.15
13 0.18
14 -0.15
15 0.66
16 -0.15
2 -0.65
20 0.15
21 0.27
22 0.15
23 0.15
24 0.15
25 0.36
26 0.36
27 0.5
3 -0.57
4 0.03
5 -0.99
6 -0.18
7 0.18
9 0.33

>  <PUBCHEM_EFFECTIVE_ROTOR_COUNT>
3

>  <PUBCHEM_PHARMACOPHORE_FEATURES>
9
1 2 acceptor
1 3 acceptor
1 4 cation
1 4 donor
1 5 cation
1 5 donor
3 2 3 15 anion
5 4 6 8 10 11 rings
6 8 10 12 13 14 16 rings

>  <PUBCHEM_HEAVY_ATOM_COUNT>
16

>  <PUBCHEM_ATOM_DEF_STEREO_COUNT>
1

>  <PUBCHEM_ATOM_UDEF_STEREO_COUNT>
0

>  <PUBCHEM_BOND_DEF_STEREO_COUNT>
0

>  <PUBCHEM_BOND_UDEF_STEREO_COUNT>
0

>  <PUBCHEM_ISOTOPIC_ATOM_COUNT>
0

>  <PUBCHEM_COMPONENT_COUNT>
1

>  <PUBCHEM_CACTVS_TAUTO_COUNT>
1

>  <PUBCHEM_CONFORMER_ID>
002F06D000000001

>  <PUBCHEM_MMFF94_ENERGY>
21.1611

>  <PUBCHEM_FEATURE_SELFOVERLAP>
45.82

>  <PUBCHEM_SHAPE_FINGERPRINT>
11578080 2 17984388924466825000
124424 183 13686303465081884254
12553582 1 18411975828143526921
13221675 6 18412827958434911515
14576447 43 18340199790755604503
15375462 189 18409729534599286731
15775835 57 18334861610268107463
16945 1 18336255791022852248
18186145 218 18334289916019968276
20645476 183 18412826893626043687
21634736 98 18269552921791453590
22112679 90 18270106921196644770
232386 152 17775000210831931829
23388829 49 18336548222809405032
23402539 116 18410292511045120260
23402655 69 18335140847572397877
23559900 14 18339087094691280412
25 1 18186239536893781042
2748010 2 16032970615544397136
2871803 45 18192422198631418127
3312278 4 18412265042788448683
34934 24 18412260597376354768
528886 8 18407760339401988560
63268167 104 18335700520365318296
7364860 26 18058442273837337785
90525 40 18128818534492151421

>  <PUBCHEM_SHAPE_MULTIPOLES>
309.44
6.2
2.12
1.03
0.36
0.09
-0.23
0.5
-1.22
-0.4
0.18
0.26
0.17
-0.87

>  <PUBCHEM_SHAPE_SELFOVERLAP>
658.378

>  <PUBCHEM_SHAPE_VOLUME>
173.9

>  <PUBCHEM_COORDINATE_TYPE>
2
5
10

$$$$
3081936
 OpenBabel12092211553D

 27 28  0  0  1  0  0  0  0  0999 V2000
    4.3479    0.5117   -0.8201 Cl  0  0  0  0  0  0  0  0  0  0  0  0
   -1.4513    0.2609   -1.8438 O   0  0  0  0  0  0  0  0  0  0  0  0
   -3.6991    0.5455   -1.9303 O   0  0  0  0  0  0  0  0  0  0  0  0
    1.4891    1.9059   -0.3135 N   0  0  0  0  0  0  0  0  0  0  0  0
   -2.0818   -1.3831    0.3273 N   0  0  0  0  0  0  0  0  0  0  0  0
   -0.4072    1.0903    0.5027 C   0  0  0  0  0  0  0  0  0  0  0  0
   -1.8055    0.9898    0.9672 C   0  0  0  0  0  0  0  0  0  0  0  0
    0.5575    0.0444    0.4891 C   0  0  0  0  0  0  0  0  0  0  0  0
   -2.6603   -0.0432    0.1968 C   0  0  1  0  0  0  0  0  0  0  0  0
    1.7382    0.5824   -0.0274 C   0  0  0  0  0  0  0  0  0  0  0  0
    0.1953    2.2221    0.0036 C   0  0  0  0  0  0  0  0  0  0  0  0
    0.5395   -1.3127    0.8678 C   0  0  0  0  0  0  0  0  0  0  0  0
    2.9065   -0.1717   -0.1847 C   0  0  0  0  0  0  0  0  0  0  0  0
    1.7006   -2.0794    0.7161 C   0  0  0  0  0  0  0  0  0  0  0  0
   -2.6914    0.2766   -1.2884 C   0  0  0  0  0  0  0  0  0  0  0  0
    2.8648   -1.5156    0.1977 C   0  0  0  0  0  0  0  0  0  0  0  0
   -2.2805    1.9772    0.8850 H   0  0  0  0  0  0  0  0  0  0  0  0
   -1.8122    0.7466    2.0388 H   0  0  0  0  0  0  0  0  0  0  0  0
   -3.6868   -0.0657    0.5812 H   0  0  0  0  0  0  0  0  0  0  0  0
   -0.1789    3.2239   -0.1557 H   0  0  0  0  0  0  0  0  0  0  0  0
    2.1643    2.5499   -0.7016 H   0  0  0  0  0  0  0  0  0  0  0  0
   -0.3558   -1.7691    1.2795 H   0  0  0  0  0  0  0  0  0  0  0  0
    1.6927   -3.1263    1.0079 H   0  0  0  0  0  0  0  0  0  0  0  0
    3.7486   -2.1417    0.0947 H   0  0  0  0  0  0  0  0  0  0  0  0
   -2.6995   -2.0657   -0.1107 H   0  0  0  0  0  0  0  0  0  0  0  0
   -2.0324   -1.6375    1.3132 H   0  0  0  0  0  0  0  0  0  0  0  0
   -1.4770    0.4749   -2.8008 H   0  0  0  0  0  0  0  0  0  0  0  0
  1 13  1  0  0  0  0
  2 15  1  0  0  0  0
  2 27  1  0  0  0  0
  3 15  2  0  0  0  0
  4 10  1  0  0  0  0
  4 11  1  0  0  0  0
  4 21  1  0  0  0  0
  5  9  1  0  0  0  0
  5 25  1  0  0  0  0
  5 26  1  0  0  0  0
  6  7  1  0  0  0  0
  6  8  1  0  0  0  0
  6 11  2  0  0  0  0
  7  9  1  0  0  0  0
  7 17  1  0  0  0  0
  7 18  1  0  0  0  0
  8 10  2  0  0  0  0
  8 12  1  0  0  0  0
  9 15  1  0  0  0  0
  9 19  1  1  0  0  0
 10 13  1  0  0  0  0
 11 20  1  0  0  0  0
 12 14  2  0  0  0  0
 12 22  1  0  0  0  0
 13 16  2  0  0  0  0
 14 16  1  0  0  0  0
 14 23  1  0  0  0  0
 16 24  1  0  0  0  0
M  END
>  <PUBCHEM_COMPOUND_CID>
3081936

>  <PUBCHEM_CONFORMER_RMSD>
0.6

>  <PUBCHEM_CONFORMER_DIVERSEORDER>
1
16
18
12
6
14
13
15
5
9
11
7
3
17
8
4
2
10

>  <PUBCHEM_MMFF94_PARTIAL_CHARGES>
23
1 -0.18
10 -0.15
11 -0.3
12 -0.15
13 0.18
14 -0.15
15 0.66
16 -0.15
2 -0.65
20 0.15
21 0.27
22 0.15
23 0.15
24 0.15
25 0.36
26 0.36
27 0.5
3 -0.57
4 0.03
5 -0.99
6 -0.18
7 0.18
9 0.33

>  <PUBCHEM_EFFECTIVE_ROTOR_COUNT>
3

>  <PUBCHEM_PHARMACOPHORE_FEATURES>
9
1 2 acceptor
1 3 acceptor
1 4 cation
1 4 donor
1 5 cation
1 5 donor
3 2 3 15 anion
5 4 6 8 10 11 rings
6 8 10 12 13 14 16 rings

>  <PUBCHEM_HEAVY_ATOM_COUNT>
16

>  <PUBCHEM_ATOM_DEF_STEREO_COUNT>
1

>  <PUBCHEM_ATOM_UDEF_STEREO_COUNT>
0

>  <PUBCHEM_BOND_DEF_STEREO_COUNT>
0

>  <PUBCHEM_BOND_UDEF_STEREO_COUNT>
0

>  <PUBCHEM_ISOTOPIC_ATOM_COUNT>
0

>  <PUBCHEM_COMPONENT_COUNT>
1

>  <PUBCHEM_CACTVS_TAUTO_COUNT>
1

>  <PUBCHEM_CONFORMER_ID>
002F06D000000001

>  <PUBCHEM_MMFF94_ENERGY>
21.1611

>  <PUBCHEM_FEATURE_SELFOVERLAP>
45.82

>  <PUBCHEM_SHAPE_FINGERPRINT>
11578080 2 17984388924466825000
124424 183 13686303465081884254
12553582 1 18411975828143526921
13221675 6 18412827958434911515
14576447 43 18340199790755604503
15375462 189 18409729534599286731
15775835 57 18334861610268107463
16945 1 18336255791022852248
18186145 218 18334289916019968276
20645476 183 18412826893626043687
21634736 98 18269552921791453590
22112679 90 18270106921196644770
232386 152 17775000210831931829
23388829 49 18336548222809405032
23402539 116 18410292511045120260
23402655 69 18335140847572397877
23559900 14 18339087094691280412
25 1 18186239536893781042
2748010 2 16032970615544397136
2871803 45 18192422198631418127
3312278 4 18412265042788448683
34934 24 18412260597376354768
528886 8 18407760339401988560
63268167 104 18335700520365318296
7364860 26 18058442273837337785
90525 40 18128818534492151421

>  <PUBCHEM_SHAPE_MULTIPOLES>
309.44
6.2
2.12
1.03
0.36
0.09
-0.23
0.5
-1.22
-0.4
0.18
0.26
0.17
-0.87

>  <PUBCHEM_SHAPE_SELFOVERLAP>
658.378

>  <PUBCHEM_SHAPE_VOLUME>
173.9

>  <PUBCHEM_COORDINATE_TYPE>
2
5
10

$$$$
3081936
 OpenBabel12092211553D

 27 28  0  0  1  0  0  0  0  0999 V2000
    4.3479    0.5117   -0.8201 Cl  0  0  0  0  0  0  0  0  0  0  0  0
   -4.1970    0.0741    1.7824 O   0  0  0  0  0  0  0  0  0  0  0  0
   -3.8816    0.6817    3.9440 O   0  0  0  0  0  0  0  0  0  0  0  0
    1.4891    1.9059   -0.3135 N   0  0  0  0  0  0  0  0  0  0  0  0
   -1.3474   -0.7362    2.6781 N   0  0  0  0  0  0  0  0  0  0  0  0
   -0.4072    1.0903    0.5027 C   0  0  0  0  0  0  0  0  0  0  0  0
   -1.8055    0.9898    0.9672 C   0  0  0  0  0  0  0  0  0  0  0  0
    0.5575    0.0444    0.4891 C   0  0  0  0  0  0  0  0  0  0  0  0
   -1.9564    0.5767    2.4497 C   0  0  1  0  0  0  0  0  0  0  0  0
    1.7382    0.5824   -0.0274 C   0  0  0  0  0  0  0  0  0  0  0  0
    0.1953    2.2221    0.0036 C   0  0  0  0  0  0  0  0  0  0  0  0
    0.5395   -1.3127    0.8678 C   0  0  0  0  0  0  0  0  0  0  0  0
    2.9065   -0.1717   -0.1847 C   0  0  0  0  0  0  0  0  0  0  0  0
    1.7006   -2.0794    0.7161 C   0  0  0  0  0  0  0  0  0  0  0  0
   -3.4215    0.4515    2.8326 C   0  0  0  0  0  0  0  0  0  0  0  0
    2.8648   -1.5156    0.1977 C   0  0  0  0  0  0  0  0  0  0  0  0
   -2.3387    0.2629    0.3389 H   0  0  0  0  0  0  0  0  0  0  0  0
   -2.3102    1.9515    0.8003 H   0  0  0  0  0  0  0  0  0  0  0  0
   -1.4734    1.3066    3.1100 H   0  0  0  0  0  0  0  0  0  0  0  0
   -0.1789    3.2239   -0.1557 H   0  0  0  0  0  0  0  0  0  0  0  0
    2.1643    2.5499   -0.7016 H   0  0  0  0  0  0  0  0  0  0  0  0
   -0.3558   -1.7691    1.2795 H   0  0  0  0  0  0  0  0  0  0  0  0
    1.6927   -3.1263    1.0079 H   0  0  0  0  0  0  0  0  0  0  0  0
    3.7486   -2.1417    0.0947 H   0  0  0  0  0  0  0  0  0  0  0  0
   -1.3766   -0.9577    3.6729 H   0  0  0  0  0  0  0  0  0  0  0  0
   -0.3606   -0.7021    2.4245 H   0  0  0  0  0  0  0  0  0  0  0  0
   -5.1424    0.0018    2.0339 H   0  0  0  0  0  0  0  0  0  0  0  0
  1 13  1  0  0  0  0
  2 15  1  0  0  0  0
  2 27  1  0  0  0  0
  3 15  2  0  0  0  0
  4 10  1  0  0  0  0
  4 11  1  0  0  0  0
  4 21  1  0  0  0  0
  5  9  1  0  0  0  0
  5 25  1  0  0  0  0
  5 26  1  0  0  0  0
  6  7  1  0  0  0  0
  6  8  1  0  0  0  0
  6 11  2  0  0  0  0
  7  9  1  0  0  0  0
  7 17  1  0  0  0  0
  7 18  1  0  0  0  0
  8 10  2  0  0  0  0
  8 12  1  0  0  0  0
  9 15  1  0  0  0  0
  9 19  1  1  0  0  0
 10 13  1  0  0  0  0
 11 20  1  0  0  0  0
 12 14  2  0  0  0  0
 12 22  1  0  0  0  0
 13 16  2  0  0  0  0
 14 16  1  0  0  0  0
 14 23  1  0  0  0  0
 16 24  1  0  0  0  0
M  END
>  <PUBCHEM_COMPOUND_CID>
3081936

>  <PUBCHEM_CONFORMER_RMSD>
0.6

>  <PUBCHEM_CONFORMER_DIVERSEORDER>
1
16
18
12
6
14
13
15
5
9
11
7
3
17
8
4
2
10

>  <PUBCHEM_MMFF94_PARTIAL_CHARGES>
23
1 -0.18
10 -0.15
11 -0.3
12 -0.15
13 0.18
14 -0.15
15 0.66
16 -0.15
2 -0.65
20 0.15
21 0.27
22 0.15
23 0.15
24 0.15
25 0.36
26 0.36
27 0.5
3 -0.57
4 0.03
5 -0.99
6 -0.18
7 0.18
9 0.33

>  <PUBCHEM_EFFECTIVE_ROTOR_COUNT>
3

>  <PUBCHEM_PHARMACOPHORE_FEATURES>
9
1 2 acceptor
1 3 acceptor
1 4 cation
1 4 donor
1 5 cation
1 5 donor
3 2 3 15 anion
5 4 6 8 10 11 rings
6 8 10 12 13 14 16 rings

>  <PUBCHEM_HEAVY_ATOM_COUNT>
16

>  <PUBCHEM_ATOM_DEF_STEREO_COUNT>
1

>  <PUBCHEM_ATOM_UDEF_STEREO_COUNT>
0

>  <PUBCHEM_BOND_DEF_STEREO_COUNT>
0

>  <PUBCHEM_BOND_UDEF_STEREO_COUNT>
0

>  <PUBCHEM_ISOTOPIC_ATOM_COUNT>
0

>  <PUBCHEM_COMPONENT_COUNT>
1

>  <PUBCHEM_CACTVS_TAUTO_COUNT>
1

>  <PUBCHEM_CONFORMER_ID>
002F06D000000001

>  <PUBCHEM_MMFF94_ENERGY>
21.1611

>  <PUBCHEM_FEATURE_SELFOVERLAP>
45.82

>  <PUBCHEM_SHAPE_FINGERPRINT>
11578080 2 17984388924466825000
124424 183 13686303465081884254
12553582 1 18411975828143526921
13221675 6 18412827958434911515
14576447 43 18340199790755604503
15375462 189 18409729534599286731
15775835 57 18334861610268107463
16945 1 18336255791022852248
18186145 218 18334289916019968276
20645476 183 18412826893626043687
21634736 98 18269552921791453590
22112679 90 18270106921196644770
232386 152 17775000210831931829
23388829 49 18336548222809405032
23402539 116 18410292511045120260
23402655 69 18335140847572397877
23559900 14 18339087094691280412
25 1 18186239536893781042
2748010 2 16032970615544397136
2871803 45 18192422198631418127
3312278 4 18412265042788448683
34934 24 18412260597376354768
528886 8 18407760339401988560
63268167 104 18335700520365318296
7364860 26 18058442273837337785
90525 40 18128818534492151421

>  <PUBCHEM_SHAPE_MULTIPOLES>
309.44
6.2
2.12
1.03
0.36
0.09
-0.23
0.5
-1.22
-0.4
0.18
0.26
0.17
-0.87

>  <PUBCHEM_SHAPE_SELFOVERLAP>
658.378

>  <PUBCHEM_SHAPE_VOLUME>
173.9

>  <PUBCHEM_COORDINATE_TYPE>
2
5
10

$$$$
3081936
 OpenBabel12092211553D

 27 28  0  0  1  0  0  0  0  0999 V2000
    4.3479    0.5117   -0.8201 Cl  0  0  0  0  0  0  0  0  0  0  0  0
   -2.8844    3.9687    1.5173 O   0  0  0  0  0  0  0  0  0  0  0  0
   -1.6271    4.0004   -0.3693 O   0  0  0  0  0  0  0  0  0  0  0  0
    1.4891    1.9059   -0.3135 N   0  0  0  0  0  0  0  0  0  0  0  0
   -2.8054    1.6674   -1.1909 N   0  0  0  0  0  0  0  0  0  0  0  0
   -0.4072    1.0903    0.5027 C   0  0  0  0  0  0  0  0  0  0  0  0
   -1.8055    0.9898    0.9672 C   0  0  0  0  0  0  0  0  0  0  0  0
    0.5575    0.0444    0.4891 C   0  0  0  0  0  0  0  0  0  0  0  0
   -2.7862    1.9447    0.2477 C   0  0  1  0  0  0  0  0  0  0  0  0
    1.7382    0.5824   -0.0274 C   0  0  0  0  0  0  0  0  0  0  0  0
    0.1953    2.2221    0.0036 C   0  0  0  0  0  0  0  0  0  0  0  0
    0.5395   -1.3127    0.8678 C   0  0  0  0  0  0  0  0  0  0  0  0
    2.9065   -0.1717   -0.1847 C   0  0  0  0  0  0  0  0  0  0  0  0
    1.7006   -2.0794    0.7161 C   0  0  0  0  0  0  0  0  0  0  0  0
   -2.3518    3.3919    0.4082 C   0  0  0  0  0  0  0  0  0  0  0  0
    2.8648   -1.5156    0.1977 C   0  0  0  0  0  0  0  0  0  0  0  0
   -1.8382    1.1928    2.0466 H   0  0  0  0  0  0  0  0  0  0  0  0
   -2.1499   -0.0472    0.8506 H   0  0  0  0  0  0  0  0  0  0  0  0
   -3.8033    1.8291    0.6405 H   0  0  0  0  0  0  0  0  0  0  0  0
   -0.1789    3.2239   -0.1557 H   0  0  0  0  0  0  0  0  0  0  0  0
    2.1643    2.5499   -0.7016 H   0  0  0  0  0  0  0  0  0  0  0  0
   -0.3558   -1.7691    1.2795 H   0  0  0  0  0  0  0  0  0  0  0  0
    1.6927   -3.1263    1.0079 H   0  0  0  0  0  0  0  0  0  0  0  0
    3.7486   -2.1417    0.0947 H   0  0  0  0  0  0  0  0  0  0  0  0
   -3.5172    2.2429   -1.6400 H   0  0  0  0  0  0  0  0  0  0  0  0
   -3.0840    0.6994   -1.3469 H   0  0  0  0  0  0  0  0  0  0  0  0
   -2.6061    4.9046    1.6117 H   0  0  0  0  0  0  0  0  0  0  0  0
  1 13  1  0  0  0  0
  2 15  1  0  0  0  0
  2 27  1  0  0  0  0
  3 15  2  0  0  0  0
  4 10  1  0  0  0  0
  4 11  1  0  0  0  0
  4 21  1  0  0  0  0
  5  9  1  0  0  0  0
  5 25  1  0  0  0  0
  5 26  1  0  0  0  0
  6  7  1  0  0  0  0
  6  8  1  0  0  0  0
  6 11  2  0  0  0  0
  7  9  1  0  0  0  0
  7 17  1  0  0  0  0
  7 18  1  0  0  0  0
  8 10  2  0  0  0  0
  8 12  1  0  0  0  0
  9 15  1  0  0  0  0
  9 19  1  1  0  0  0
 10 13  1  0  0  0  0
 11 20  1  0  0  0  0
 12 14  2  0  0  0  0
 12 22  1  0  0  0  0
 13 16  2  0  0  0  0
 14 16  1  0  0  0  0
 14 23  1  0  0  0  0
 16 24  1  0  0  0  0
M  END
>  <PUBCHEM_COMPOUND_CID>
3081936

>  <PUBCHEM_CONFORMER_RMSD>
0.6

>  <PUBCHEM_CONFORMER_DIVERSEORDER>
1
16
18
12
6
14
13
15
5
9
11
7
3
17
8
4
2
10

>  <PUBCHEM_MMFF94_PARTIAL_CHARGES>
23
1 -0.18
10 -0.15
11 -0.3
12 -0.15
13 0.18
14 -0.15
15 0.66
16 -0.15
2 -0.65
20 0.15
21 0.27
22 0.15
23 0.15
24 0.15
25 0.36
26 0.36
27 0.5
3 -0.57
4 0.03
5 -0.99
6 -0.18
7 0.18
9 0.33

>  <PUBCHEM_EFFECTIVE_ROTOR_COUNT>
3

>  <PUBCHEM_PHARMACOPHORE_FEATURES>
9
1 2 acceptor
1 3 acceptor
1 4 cation
1 4 donor
1 5 cation
1 5 donor
3 2 3 15 anion
5 4 6 8 10 11 rings
6 8 10 12 13 14 16 rings

>  <PUBCHEM_HEAVY_ATOM_COUNT>
16

>  <PUBCHEM_ATOM_DEF_STEREO_COUNT>
1

>  <PUBCHEM_ATOM_UDEF_STEREO_COUNT>
0

>  <PUBCHEM_BOND_DEF_STEREO_COUNT>
0

>  <PUBCHEM_BOND_UDEF_STEREO_COUNT>
0

>  <PUBCHEM_ISOTOPIC_ATOM_COUNT>
0

>  <PUBCHEM_COMPONENT_COUNT>
1

>  <PUBCHEM_CACTVS_TAUTO_COUNT>
1

>  <PUBCHEM_CONFORMER_ID>
002F06D000000001

>  <PUBCHEM_MMFF94_ENERGY>
21.1611

>  <PUBCHEM_FEATURE_SELFOVERLAP>
45.82

>  <PUBCHEM_SHAPE_FINGERPRINT>
11578080 2 17984388924466825000
124424 183 13686303465081884254
12553582 1 18411975828143526921
13221675 6 18412827958434911515
14576447 43 18340199790755604503
15375462 189 18409729534599286731
15775835 57 18334861610268107463
16945 1 18336255791022852248
18186145 218 18334289916019968276
20645476 183 18412826893626043687
21634736 98 18269552921791453590
22112679 90 18270106921196644770
232386 152 17775000210831931829
23388829 49 18336548222809405032
23402539 116 18410292511045120260
23402655 69 18335140847572397877
23559900 14 18339087094691280412
25 1 18186239536893781042
2748010 2 16032970615544397136
2871803 45 18192422198631418127
3312278 4 18412265042788448683
34934 24 18412260597376354768
528886 8 18407760339401988560
63268167 104 18335700520365318296
7364860 26 18058442273837337785
90525 40 18128818534492151421

>  <PUBCHEM_SHAPE_MULTIPOLES>
309.44
6.2
2.12
1.03
0.36
0.09
-0.23
0.5
-1.22
-0.4
0.18
0.26
0.17
-0.87

>  <PUBCHEM_SHAPE_SELFOVERLAP>
658.378

>  <PUBCHEM_SHAPE_VOLUME>
173.9

>  <PUBCHEM_COORDINATE_TYPE>
2
5
10

$$$$
3081936
 OpenBabel12092211553D

 27 28  0  0  1  0  0  0  0  0999 V2000
    4.3479    0.5117   -0.8201 Cl  0  0  0  0  0  0  0  0  0  0  0  0
   -0.9881    0.2622    3.4217 O   0  0  0  0  0  0  0  0  0  0  0  0
   -1.0472   -1.9584    2.9671 O   0  0  0  0  0  0  0  0  0  0  0  0
    1.4891    1.9059   -0.3135 N   0  0  0  0  0  0  0  0  0  0  0  0
   -3.6062   -0.4148    1.9163 N   0  0  0  0  0  0  0  0  0  0  0  0
   -0.4072    1.0903    0.5027 C   0  0  0  0  0  0  0  0  0  0  0  0
   -1.8055    0.9898    0.9672 C   0  0  0  0  0  0  0  0  0  0  0  0
    0.5575    0.0444    0.4891 C   0  0  0  0  0  0  0  0  0  0  0  0
   -2.2078   -0.4129    1.4789 C   0  0  1  0  0  0  0  0  0  0  0  0
    1.7382    0.5824   -0.0274 C   0  0  0  0  0  0  0  0  0  0  0  0
    0.1953    2.2221    0.0036 C   0  0  0  0  0  0  0  0  0  0  0  0
    0.5395   -1.3127    0.8678 C   0  0  0  0  0  0  0  0  0  0  0  0
    2.9065   -0.1717   -0.1847 C   0  0  0  0  0  0  0  0  0  0  0  0
    1.7006   -2.0794    0.7161 C   0  0  0  0  0  0  0  0  0  0  0  0
   -1.3724   -0.8122    2.6837 C   0  0  0  0  0  0  0  0  0  0  0  0
    2.8648   -1.5156    0.1977 C   0  0  0  0  0  0  0  0  0  0  0  0
   -2.4759    1.2746    0.1446 H   0  0  0  0  0  0  0  0  0  0  0  0
   -1.9761    1.7328    1.7587 H   0  0  0  0  0  0  0  0  0  0  0  0
   -2.0859   -1.1661    0.6914 H   0  0  0  0  0  0  0  0  0  0  0  0
   -0.1789    3.2239   -0.1557 H   0  0  0  0  0  0  0  0  0  0  0  0
    2.1643    2.5499   -0.7016 H   0  0  0  0  0  0  0  0  0  0  0  0
   -0.3558   -1.7691    1.2795 H   0  0  0  0  0  0  0  0  0  0  0  0
    1.6927   -3.1263    1.0079 H   0  0  0  0  0  0  0  0  0  0  0  0
    3.7486   -2.1417    0.0947 H   0  0  0  0  0  0  0  0  0  0  0  0
   -3.8835   -1.3629    2.1690 H   0  0  0  0  0  0  0  0  0  0  0  0
   -4.2061   -0.1423    1.1385 H   0  0  0  0  0  0  0  0  0  0  0  0
   -0.4434   -0.0012    4.1939 H   0  0  0  0  0  0  0  0  0  0  0  0
  1 13  1  0  0  0  0
  2 15  1  0  0  0  0
  2 27  1  0  0  0  0
  3 15  2  0  0  0  0
  4 10  1  0  0  0  0
  4 11  1  0  0  0  0
  4 21  1  0  0  0  0
  5  9  1  0  0  0  0
  5 25  1  0  0  0  0
  5 26  1  0  0  0  0
  6  7  1  0  0  0  0
  6  8  1  0  0  0  0
  6 11  2  0  0  0  0
  7  9  1  0  0  0  0
  7 17  1  0  0  0  0
  7 18  1  0  0  0  0
  8 10  2  0  0  0  0
  8 12  1  0  0  0  0
  9 15  1  0  0  0  0
  9 19  1  6  0  0  0
 10 13  1  0  0  0  0
 11 20  1  0  0  0  0
 12 14  2  0  0  0  0
 12 22  1  0  0  0  0
 13 16  2  0  0  0  0
 14 16  1  0  0  0  0
 14 23  1  0  0  0  0
 16 24  1  0  0  0  0
M  END
>  <PUBCHEM_COMPOUND_CID>
3081936

>  <PUBCHEM_CONFORMER_RMSD>
0.6

>  <PUBCHEM_CONFORMER_DIVERSEORDER>
1
16
18
12
6
14
13
15
5
9
11
7
3
17
8
4
2
10

>  <PUBCHEM_MMFF94_PARTIAL_CHARGES>
23
1 -0.18
10 -0.15
11 -0.3
12 -0.15
13 0.18
14 -0.15
15 0.66
16 -0.15
2 -0.65
20 0.15
21 0.27
22 0.15
23 0.15
24 0.15
25 0.36
26 0.36
27 0.5
3 -0.57
4 0.03
5 -0.99
6 -0.18
7 0.18
9 0.33

>  <PUBCHEM_EFFECTIVE_ROTOR_COUNT>
3

>  <PUBCHEM_PHARMACOPHORE_FEATURES>
9
1 2 acceptor
1 3 acceptor
1 4 cation
1 4 donor
1 5 cation
1 5 donor
3 2 3 15 anion
5 4 6 8 10 11 rings
6 8 10 12 13 14 16 rings

>  <PUBCHEM_HEAVY_ATOM_COUNT>
16

>  <PUBCHEM_ATOM_DEF_STEREO_COUNT>
1

>  <PUBCHEM_ATOM_UDEF_STEREO_COUNT>
0

>  <PUBCHEM_BOND_DEF_STEREO_COUNT>
0

>  <PUBCHEM_BOND_UDEF_STEREO_COUNT>
0

>  <PUBCHEM_ISOTOPIC_ATOM_COUNT>
0

>  <PUBCHEM_COMPONENT_COUNT>
1

>  <PUBCHEM_CACTVS_TAUTO_COUNT>
1

>  <PUBCHEM_CONFORMER_ID>
002F06D000000001

>  <PUBCHEM_MMFF94_ENERGY>
21.1611

>  <PUBCHEM_FEATURE_SELFOVERLAP>
45.82

>  <PUBCHEM_SHAPE_FINGERPRINT>
11578080 2 17984388924466825000
124424 183 13686303465081884254
12553582 1 18411975828143526921
13221675 6 18412827958434911515
14576447 43 18340199790755604503
15375462 189 18409729534599286731
15775835 57 18334861610268107463
16945 1 18336255791022852248
18186145 218 18334289916019968276
20645476 183 18412826893626043687
21634736 98 18269552921791453590
22112679 90 18270106921196644770
232386 152 17775000210831931829
23388829 49 18336548222809405032
23402539 116 18410292511045120260
23402655 69 18335140847572397877
23559900 14 18339087094691280412
25 1 18186239536893781042
2748010 2 16032970615544397136
2871803 45 18192422198631418127
3312278 4 18412265042788448683
34934 24 18412260597376354768
528886 8 18407760339401988560
63268167 104 18335700520365318296
7364860 26 18058442273837337785
90525 40 18128818534492151421

>  <PUBCHEM_SHAPE_MULTIPOLES>
309.44
6.2
2.12
1.03
0.36
0.09
-0.23
0.5
-1.22
-0.4
0.18
0.26
0.17
-0.87

>  <PUBCHEM_SHAPE_SELFOVERLAP>
658.378

>  <PUBCHEM_SHAPE_VOLUME>
173.9

>  <PUBCHEM_COORDINATE_TYPE>
2
5
10

$$$$
3081936
 OpenBabel12092211553D

 27 28  0  0  1  0  0  0  0  0999 V2000
    4.3479    0.5117   -0.8201 Cl  0  0  0  0  0  0  0  0  0  0  0  0
   -4.9179    0.8641    0.1686 O   0  0  0  0  0  0  0  0  0  0  0  0
   -4.6455    2.4836    1.7320 O   0  0  0  0  0  0  0  0  0  0  0  0
    1.4891    1.9059   -0.3135 N   0  0  0  0  0  0  0  0  0  0  0  0
   -2.3809    3.3384    0.4484 N   0  0  0  0  0  0  0  0  0  0  0  0
   -0.4072    1.0903    0.5027 C   0  0  0  0  0  0  0  0  0  0  0  0
   -1.8055    0.9898    0.9672 C   0  0  0  0  0  0  0  0  0  0  0  0
    0.5575    0.0444    0.4891 C   0  0  0  0  0  0  0  0  0  0  0  0
   -2.7862    1.9447    0.2477 C   0  0  1  0  0  0  0  0  0  0  0  0
    1.7382    0.5824   -0.0274 C   0  0  0  0  0  0  0  0  0  0  0  0
    0.1953    2.2221    0.0036 C   0  0  0  0  0  0  0  0  0  0  0  0
    0.5395   -1.3127    0.8678 C   0  0  0  0  0  0  0  0  0  0  0  0
    2.9065   -0.1717   -0.1847 C   0  0  0  0  0  0  0  0  0  0  0  0
    1.7006   -2.0794    0.7161 C   0  0  0  0  0  0  0  0  0  0  0  0
   -4.1894    1.8115    0.8154 C   0  0  0  0  0  0  0  0  0  0  0  0
    2.8648   -1.5156    0.1977 C   0  0  0  0  0  0  0  0  0  0  0  0
   -1.8382    1.1928    2.0466 H   0  0  0  0  0  0  0  0  0  0  0  0
   -2.1499   -0.0472    0.8506 H   0  0  0  0  0  0  0  0  0  0  0  0
   -2.8130    1.7391   -0.8289 H   0  0  0  0  0  0  0  0  0  0  0  0
   -0.1789    3.2239   -0.1557 H   0  0  0  0  0  0  0  0  0  0  0  0
    2.1643    2.5499   -0.7016 H   0  0  0  0  0  0  0  0  0  0  0  0
   -0.3558   -1.7691    1.2795 H   0  0  0  0  0  0  0  0  0  0  0  0
    1.6927   -3.1263    1.0079 H   0  0  0  0  0  0  0  0  0  0  0  0
    3.7486   -2.1417    0.0947 H   0  0  0  0  0  0  0  0  0  0  0  0
   -2.9829    3.9514   -0.1006 H   0  0  0  0  0  0  0  0  0  0  0  0
   -1.4366    3.4730    0.0889 H   0  0  0  0  0  0  0  0  0  0  0  0
   -5.8247    0.7877    0.5347 H   0  0  0  0  0  0  0  0  0  0  0  0
  1 13  1  0  0  0  0
  2 15  1  0  0  0  0
  2 27  1  0  0  0  0
  3 15  2  0  0  0  0
  4 10  1  0  0  0  0
  4 11  1  0  0  0  0
  4 21  1  0  0  0  0
  5  9  1  0  0  0  0
  5 25  1  0  0  0  0
  5 26  1  0  0  0  0
  6  7  1  0  0  0  0
  6  8  1  0  0  0  0
  6 11  2  0  0  0  0
  7  9  1  0  0  0  0
  7 17  1  0  0  0  0
  7 18  1  0  0  0  0
  8 10  2  0  0  0  0
  8 12  1  0  0  0  0
  9 15  1  0  0  0  0
  9 19  1  6  0  0  0
 10 13  1  0  0  0  0
 11 20  1  0  0  0  0
 12 14  2  0  0  0  0
 12 22  1  0  0  0  0
 13 16  2  0  0  0  0
 14 16  1  0  0  0  0
 14 23  1  0  0  0  0
 16 24  1  0  0  0  0
M  END
>  <PUBCHEM_COMPOUND_CID>
3081936

>  <PUBCHEM_CONFORMER_RMSD>
0.6

>  <PUBCHEM_CONFORMER_DIVERSEORDER>
1
16
18
12
6
14
13
15
5
9
11
7
3
17
8
4
2
10

>  <PUBCHEM_MMFF94_PARTIAL_CHARGES>
23
1 -0.18
10 -0.15
11 -0.3
12 -0.15
13 0.18
14 -0.15
15 0.66
16 -0.15
2 -0.65
20 0.15
21 0.27
22 0.15
23 0.15
24 0.15
25 0.36
26 0.36
27 0.5
3 -0.57
4 0.03
5 -0.99
6 -0.18
7 0.18
9 0.33

>  <PUBCHEM_EFFECTIVE_ROTOR_COUNT>
3

>  <PUBCHEM_PHARMACOPHORE_FEATURES>
9
1 2 acceptor
1 3 acceptor
1 4 cation
1 4 donor
1 5 cation
1 5 donor
3 2 3 15 anion
5 4 6 8 10 11 rings
6 8 10 12 13 14 16 rings

>  <PUBCHEM_HEAVY_ATOM_COUNT>
16

>  <PUBCHEM_ATOM_DEF_STEREO_COUNT>
1

>  <PUBCHEM_ATOM_UDEF_STEREO_COUNT>
0

>  <PUBCHEM_BOND_DEF_STEREO_COUNT>
0

>  <PUBCHEM_BOND_UDEF_STEREO_COUNT>
0

>  <PUBCHEM_ISOTOPIC_ATOM_COUNT>
0

>  <PUBCHEM_COMPONENT_COUNT>
1

>  <PUBCHEM_CACTVS_TAUTO_COUNT>
1

>  <PUBCHEM_CONFORMER_ID>
002F06D000000001

>  <PUBCHEM_MMFF94_ENERGY>
21.1611

>  <PUBCHEM_FEATURE_SELFOVERLAP>
45.82

>  <PUBCHEM_SHAPE_FINGERPRINT>
11578080 2 17984388924466825000
124424 183 13686303465081884254
12553582 1 18411975828143526921
13221675 6 18412827958434911515
14576447 43 18340199790755604503
15375462 189 18409729534599286731
15775835 57 18334861610268107463
16945 1 18336255791022852248
18186145 218 18334289916019968276
20645476 183 18412826893626043687
21634736 98 18269552921791453590
22112679 90 18270106921196644770
232386 152 17775000210831931829
23388829 49 18336548222809405032
23402539 116 18410292511045120260
23402655 69 18335140847572397877
23559900 14 18339087094691280412
25 1 18186239536893781042
2748010 2 16032970615544397136
2871803 45 18192422198631418127
3312278 4 18412265042788448683
34934 24 18412260597376354768
528886 8 18407760339401988560
63268167 104 18335700520365318296
7364860 26 18058442273837337785
90525 40 18128818534492151421

>  <PUBCHEM_SHAPE_MULTIPOLES>
309.44
6.2
2.12
1.03
0.36
0.09
-0.23
0.5
-1.22
-0.4
0.18
0.26
0.17
-0.87

>  <PUBCHEM_SHAPE_SELFOVERLAP>
658.378

>  <PUBCHEM_SHAPE_VOLUME>
173.9

>  <PUBCHEM_COORDINATE_TYPE>
2
5
10

$$$$
3081936
 OpenBabel12092211553D

 27 28  0  0  1  0  0  0  0  0999 V2000
    4.3479    0.5117   -0.8201 Cl  0  0  0  0  0  0  0  0  0  0  0  0
   -4.4104    2.6688    1.8464 O   0  0  0  0  0  0  0  0  0  0  0  0
   -5.0347    1.0159    0.4253 O   0  0  0  0  0  0  0  0  0  0  0  0
    1.4891    1.9059   -0.3135 N   0  0  0  0  0  0  0  0  0  0  0  0
   -2.3809    3.3384    0.4484 N   0  0  0  0  0  0  0  0  0  0  0  0
   -0.4072    1.0903    0.5027 C   0  0  0  0  0  0  0  0  0  0  0  0
   -1.8055    0.9898    0.9672 C   0  0  0  0  0  0  0  0  0  0  0  0
    0.5575    0.0444    0.4891 C   0  0  0  0  0  0  0  0  0  0  0  0
   -2.7862    1.9447    0.2477 C   0  0  1  0  0  0  0  0  0  0  0  0
    1.7382    0.5824   -0.0274 C   0  0  0  0  0  0  0  0  0  0  0  0
    0.1953    2.2221    0.0036 C   0  0  0  0  0  0  0  0  0  0  0  0
    0.5395   -1.3127    0.8678 C   0  0  0  0  0  0  0  0  0  0  0  0
    2.9065   -0.1717   -0.1847 C   0  0  0  0  0  0  0  0  0  0  0  0
    1.7006   -2.0794    0.7161 C   0  0  0  0  0  0  0  0  0  0  0  0
   -4.1894    1.8115    0.8154 C   0  0  0  0  0  0  0  0  0  0  0  0
    2.8648   -1.5156    0.1977 C   0  0  0  0  0  0  0  0  0  0  0  0
   -1.8382    1.1928    2.0466 H   0  0  0  0  0  0  0  0  0  0  0  0
   -2.1499   -0.0472    0.8506 H   0  0  0  0  0  0  0  0  0  0  0  0
   -2.8130    1.7391   -0.8289 H   0  0  0  0  0  0  0  0  0  0  0  0
   -0.1789    3.2239   -0.1557 H   0  0  0  0  0  0  0  0  0  0  0  0
    2.1643    2.5499   -0.7016 H   0  0  0  0  0  0  0  0  0  0  0  0
   -0.3558   -1.7691    1.2795 H   0  0  0  0  0  0  0  0  0  0  0  0
    1.6927   -3.1263    1.0079 H   0  0  0  0  0  0  0  0  0  0  0  0
    3.7486   -2.1417    0.0947 H   0  0  0  0  0  0  0  0  0  0  0  0
   -2.9829    3.9514   -0.1006 H   0  0  0  0  0  0  0  0  0  0  0  0
   -1.4366    3.4730    0.0889 H   0  0  0  0  0  0  0  0  0  0  0  0
   -5.3152    2.5732    2.2131 H   0  0  0  0  0  0  0  0  0  0  0  0
  1 13  1  0  0  0  0
  2 15  1  0  0  0  0
  2 27  1  0  0  0  0
  3 15  2  0  0  0  0
  4 10  1  0  0  0  0
  4 11  1  0  0  0  0
  4 21  1  0  0  0  0
  5  9  1  0  0  0  0
  5 25  1  0  0  0  0
  5 26  1  0  0  0  0
  6  7  1  0  0  0  0
  6  8  1  0  0  0  0
  6 11  2  0  0  0  0
  7  9  1  0  0  0  0
  7 17  1  0  0  0  0
  7 18  1  0  0  0  0
  8 10  2  0  0  0  0
  8 12  1  0  0  0  0
  9 15  1  0  0  0  0
  9 19  1  6  0  0  0
 10 13  1  0  0  0  0
 11 20  1  0  0  0  0
 12 14  2  0  0  0  0
 12 22  1  0  0  0  0
 13 16  2  0  0  0  0
 14 16  1  0  0  0  0
 14 23  1  0  0  0  0
 16 24  1  0  0  0  0
M  END
>  <PUBCHEM_COMPOUND_CID>
3081936

>  <PUBCHEM_CONFORMER_RMSD>
0.6

>  <PUBCHEM_CONFORMER_DIVERSEORDER>
1
16
18
12
6
14
13
15
5
9
11
7
3
17
8
4
2
10

>  <PUBCHEM_MMFF94_PARTIAL_CHARGES>
23
1 -0.18
10 -0.15
11 -0.3
12 -0.15
13 0.18
14 -0.15
15 0.66
16 -0.15
2 -0.65
20 0.15
21 0.27
22 0.15
23 0.15
24 0.15
25 0.36
26 0.36
27 0.5
3 -0.57
4 0.03
5 -0.99
6 -0.18
7 0.18
9 0.33

>  <PUBCHEM_EFFECTIVE_ROTOR_COUNT>
3

>  <PUBCHEM_PHARMACOPHORE_FEATURES>
9
1 2 acceptor
1 3 acceptor
1 4 cation
1 4 donor
1 5 cation
1 5 donor
3 2 3 15 anion
5 4 6 8 10 11 rings
6 8 10 12 13 14 16 rings

>  <PUBCHEM_HEAVY_ATOM_COUNT>
16

>  <PUBCHEM_ATOM_DEF_STEREO_COUNT>
1

>  <PUBCHEM_ATOM_UDEF_STEREO_COUNT>
0

>  <PUBCHEM_BOND_DEF_STEREO_COUNT>
0

>  <PUBCHEM_BOND_UDEF_STEREO_COUNT>
0

>  <PUBCHEM_ISOTOPIC_ATOM_COUNT>
0

>  <PUBCHEM_COMPONENT_COUNT>
1

>  <PUBCHEM_CACTVS_TAUTO_COUNT>
1

>  <PUBCHEM_CONFORMER_ID>
002F06D000000001

>  <PUBCHEM_MMFF94_ENERGY>
21.1611

>  <PUBCHEM_FEATURE_SELFOVERLAP>
45.82

>  <PUBCHEM_SHAPE_FINGERPRINT>
11578080 2 17984388924466825000
124424 183 13686303465081884254
12553582 1 18411975828143526921
13221675 6 18412827958434911515
14576447 43 18340199790755604503
15375462 189 18409729534599286731
15775835 57 18334861610268107463
16945 1 18336255791022852248
18186145 218 18334289916019968276
20645476 183 18412826893626043687
21634736 98 18269552921791453590
22112679 90 18270106921196644770
232386 152 17775000210831931829
23388829 49 18336548222809405032
23402539 116 18410292511045120260
23402655 69 18335140847572397877
23559900 14 18339087094691280412
25 1 18186239536893781042
2748010 2 16032970615544397136
2871803 45 18192422198631418127
3312278 4 18412265042788448683
34934 24 18412260597376354768
528886 8 18407760339401988560
63268167 104 18335700520365318296
7364860 26 18058442273837337785
90525 40 18128818534492151421

>  <PUBCHEM_SHAPE_MULTIPOLES>
309.44
6.2
2.12
1.03
0.36
0.09
-0.23
0.5
-1.22
-0.4
0.18
0.26
0.17
-0.87

>  <PUBCHEM_SHAPE_SELFOVERLAP>
658.378

>  <PUBCHEM_SHAPE_VOLUME>
173.9

>  <PUBCHEM_COORDINATE_TYPE>
2
5
10

$$$$
3081936
 OpenBabel12092211553D

 27 28  0  0  1  0  0  0  0  0999 V2000
    4.3479    0.5117   -0.8201 Cl  0  0  0  0  0  0  0  0  0  0  0  0
   -1.7424   -1.9999   -0.8264 O   0  0  0  0  0  0  0  0  0  0  0  0
   -1.9900   -2.0400    1.4271 O   0  0  0  0  0  0  0  0  0  0  0  0
    1.4891    1.9059   -0.3135 N   0  0  0  0  0  0  0  0  0  0  0  0
   -4.0262   -0.0717    0.7262 N   0  0  0  0  0  0  0  0  0  0  0  0
   -0.4072    1.0903    0.5027 C   0  0  0  0  0  0  0  0  0  0  0  0
   -1.8055    0.9898    0.9672 C   0  0  0  0  0  0  0  0  0  0  0  0
    0.5575    0.0444    0.4891 C   0  0  0  0  0  0  0  0  0  0  0  0
   -2.6603   -0.0432    0.1968 C   0  0  1  0  0  0  0  0  0  0  0  0
    1.7382    0.5824   -0.0274 C   0  0  0  0  0  0  0  0  0  0  0  0
    0.1953    2.2221    0.0036 C   0  0  0  0  0  0  0  0  0  0  0  0
    0.5395   -1.3127    0.8678 C   0  0  0  0  0  0  0  0  0  0  0  0
    2.9065   -0.1717   -0.1847 C   0  0  0  0  0  0  0  0  0  0  0  0
    1.7006   -2.0794    0.7161 C   0  0  0  0  0  0  0  0  0  0  0  0
   -2.0982   -1.4452    0.3620 C   0  0  0  0  0  0  0  0  0  0  0  0
    2.8648   -1.5156    0.1977 C   0  0  0  0  0  0  0  0  0  0  0  0
   -2.2805    1.9772    0.8850 H   0  0  0  0  0  0  0  0  0  0  0  0
   -1.8122    0.7466    2.0388 H   0  0  0  0  0  0  0  0  0  0  0  0
   -2.7032    0.2033   -0.8707 H   0  0  0  0  0  0  0  0  0  0  0  0
   -0.1789    3.2239   -0.1557 H   0  0  0  0  0  0  0  0  0  0  0  0
    2.1643    2.5499   -0.7016 H   0  0  0  0  0  0  0  0  0  0  0  0
   -0.3558   -1.7691    1.2795 H   0  0  0  0  0  0  0  0  0  0  0  0
    1.6927   -3.1263    1.0079 H   0  0  0  0  0  0  0  0  0  0  0  0
    3.7486   -2.1417    0.0947 H   0  0  0  0  0  0  0  0  0  0  0  0
   -4.6006   -0.6912    0.1555 H   0  0  0  0  0  0  0  0  0  0  0  0
   -4.4420    0.8554    0.6441 H   0  0  0  0  0  0  0  0  0  0  0  0
   -1.3870   -2.9073   -0.7141 H   0  0  0  0  0  0  0  0  0  0  0  0
  1 13  1  0  0  0  0
  2 15  1  0  0  0  0
  2 27  1  0  0  0  0
  3 15  2  0  0  0  0
  4 10  1  0  0  0  0
  4 11  1  0  0  0  0
  4 21  1  0  0  0  0
  5  9  1  0  0  0  0
  5 25  1  0  0  0  0
  5 26  1  0  0  0  0
  6  7  1  0  0  0  0
  6  8  1  0  0  0  0
  6 11  2  0  0  0  0
  7  9  1  0  0  0  0
  7 17  1  0  0  0  0
  7 18  1  0  0  0  0
  8 10  2  0  0  0  0
  8 12  1  0  0  0  0
  9 15  1  0  0  0  0
  9 19  1  6  0  0  0
 10 13  1  0  0  0  0
 11 20  1  0  0  0  0
 12 14  2  0  0  0  0
 12 22  1  0  0  0  0
 13 16  2  0  0  0  0
 14 16  1  0  0  0  0
 14 23  1  0  0  0  0
 16 24  1  0  0  0  0
M  END
>  <PUBCHEM_COMPOUND_CID>
3081936

>  <PUBCHEM_CONFORMER_RMSD>
0.6

>  <PUBCHEM_CONFORMER_DIVERSEORDER>
1
16
18
12
6
14
13
15
5
9
11
7
3
17
8
4
2
10

>  <PUBCHEM_MMFF94_PARTIAL_CHARGES>
23
1 -0.18
10 -0.15
11 -0.3
12 -0.15
13 0.18
14 -0.15
15 0.66
16 -0.15
2 -0.65
20 0.15
21 0.27
22 0.15
23 0.15
24 0.15
25 0.36
26 0.36
27 0.5
3 -0.57
4 0.03
5 -0.99
6 -0.18
7 0.18
9 0.33

>  <PUBCHEM_EFFECTIVE_ROTOR_COUNT>
3

>  <PUBCHEM_PHARMACOPHORE_FEATURES>
9
1 2 acceptor
1 3 acceptor
1 4 cation
1 4 donor
1 5 cation
1 5 donor
3 2 3 15 anion
5 4 6 8 10 11 rings
6 8 10 12 13 14 16 rings

>  <PUBCHEM_HEAVY_ATOM_COUNT>
16

>  <PUBCHEM_ATOM_DEF_STEREO_COUNT>
1

>  <PUBCHEM_ATOM_UDEF_STEREO_COUNT>
0

>  <PUBCHEM_BOND_DEF_STEREO_COUNT>
0

>  <PUBCHEM_BOND_UDEF_STEREO_COUNT>
0

>  <PUBCHEM_ISOTOPIC_ATOM_COUNT>
0

>  <PUBCHEM_COMPONENT_COUNT>
1

>  <PUBCHEM_CACTVS_TAUTO_COUNT>
1

>  <PUBCHEM_CONFORMER_ID>
002F06D000000001

>  <PUBCHEM_MMFF94_ENERGY>
21.1611

>  <PUBCHEM_FEATURE_SELFOVERLAP>
45.82

>  <PUBCHEM_SHAPE_FINGERPRINT>
11578080 2 17984388924466825000
124424 183 13686303465081884254
12553582 1 18411975828143526921
13221675 6 18412827958434911515
14576447 43 18340199790755604503
15375462 189 18409729534599286731
15775835 57 18334861610268107463
16945 1 18336255791022852248
18186145 218 18334289916019968276
20645476 183 18412826893626043687
21634736 98 18269552921791453590
22112679 90 18270106921196644770
232386 152 17775000210831931829
23388829 49 18336548222809405032
23402539 116 18410292511045120260
23402655 69 18335140847572397877
23559900 14 18339087094691280412
25 1 18186239536893781042
2748010 2 16032970615544397136
2871803 45 18192422198631418127
3312278 4 18412265042788448683
34934 24 18412260597376354768
528886 8 18407760339401988560
63268167 104 18335700520365318296
7364860 26 18058442273837337785
90525 40 18128818534492151421

>  <PUBCHEM_SHAPE_MULTIPOLES>
309.44
6.2
2.12
1.03
0.36
0.09
-0.23
0.5
-1.22
-0.4
0.18
0.26
0.17
-0.87

>  <PUBCHEM_SHAPE_SELFOVERLAP>
658.378

>  <PUBCHEM_SHAPE_VOLUME>
173.9

>  <PUBCHEM_COORDINATE_TYPE>
2
5
10

$$$$
3081936
 OpenBabel12092211553D

 27 28  0  0  1  0  0  0  0  0999 V2000
    4.3479    0.5117   -0.8201 Cl  0  0  0  0  0  0  0  0  0  0  0  0
   -1.1915   -2.1568    2.7610 O   0  0  0  0  0  0  0  0  0  0  0  0
   -0.9228   -0.0363    3.5178 O   0  0  0  0  0  0  0  0  0  0  0  0
    1.4891    1.9059   -0.3135 N   0  0  0  0  0  0  0  0  0  0  0  0
   -3.6062   -0.4148    1.9163 N   0  0  0  0  0  0  0  0  0  0  0  0
   -0.4072    1.0903    0.5027 C   0  0  0  0  0  0  0  0  0  0  0  0
   -1.8055    0.9898    0.9672 C   0  0  0  0  0  0  0  0  0  0  0  0
    0.5575    0.0444    0.4891 C   0  0  0  0  0  0  0  0  0  0  0  0
   -2.2078   -0.4129    1.4789 C   0  0  1  0  0  0  0  0  0  0  0  0
    1.7382    0.5824   -0.0274 C   0  0  0  0  0  0  0  0  0  0  0  0
    0.1953    2.2221    0.0036 C   0  0  0  0  0  0  0  0  0  0  0  0
    0.5395   -1.3127    0.8678 C   0  0  0  0  0  0  0  0  0  0  0  0
    2.9065   -0.1717   -0.1847 C   0  0  0  0  0  0  0  0  0  0  0  0
    1.7006   -2.0794    0.7161 C   0  0  0  0  0  0  0  0  0  0  0  0
   -1.3724   -0.8122    2.6837 C   0  0  0  0  0  0  0  0  0  0  0  0
    2.8648   -1.5156    0.1977 C   0  0  0  0  0  0  0  0  0  0  0  0
   -2.4759    1.2746    0.1446 H   0  0  0  0  0  0  0  0  0  0  0  0
   -1.9761    1.7328    1.7587 H   0  0  0  0  0  0  0  0  0  0  0  0
   -2.0859   -1.1661    0.6914 H   0  0  0  0  0  0  0  0  0  0  0  0
   -0.1789    3.2239   -0.1557 H   0  0  0  0  0  0  0  0  0  0  0  0
    2.1643    2.5499   -0.7016 H   0  0  0  0  0  0  0  0  0  0  0  0
   -0.3558   -1.7691    1.2795 H   0  0  0  0  0  0  0  0  0  0  0  0
    1.6927   -3.1263    1.0079 H   0  0  0  0  0  0  0  0  0  0  0  0
    3.7486   -2.1417    0.0947 H   0  0  0  0  0  0  0  0  0  0  0  0
   -3.8835   -1.3629    2.1690 H   0  0  0  0  0  0  0  0  0  0  0  0
   -4.2061   -0.1423    1.1385 H   0  0  0  0  0  0  0  0  0  0  0  0
   -0.6576   -2.4090    3.5444 H   0  0  0  0  0  0  0  0  0  0  0  0
  1 13  1  0  0  0  0
  2 15  1  0  0  0  0
  2 27  1  0  0  0  0
  3 15  2  0  0  0  0
  4 10  1  0  0  0  0
  4 11  1  0  0  0  0
  4 21  1  0  0  0  0
  5  9  1  0  0  0  0
  5 25  1  0  0  0  0
  5 26  1  0  0  0  0
  6  7  1  0  0  0  0
  6  8  1  0  0  0  0
  6 11  2  0  0  0  0
  7  9  1  0  0  0  0
  7 17  1  0  0  0  0
  7 18  1  0  0  0  0
  8 10  2  0  0  0  0
  8 12  1  0  0  0  0
  9 15  1  0  0  0  0
  9 19  1  6  0  0  0
 10 13  1  0  0  0  0
 11 20  1  0  0  0  0
 12 14  2  0  0  0  0
 12 22  1  0  0  0  0
 13 16  2  0  0  0  0
 14 16  1  0  0  0  0
 14 23  1  0  0  0  0
 16 24  1  0  0  0  0
M  END
>  <PUBCHEM_COMPOUND_CID>
3081936

>  <PUBCHEM_CONFORMER_RMSD>
0.6

>  <PUBCHEM_CONFORMER_DIVERSEORDER>
1
16
18
12
6
14
13
15
5
9
11
7
3
17
8
4
2
10

>  <PUBCHEM_MMFF94_PARTIAL_CHARGES>
23
1 -0.18
10 -0.15
11 -0.3
12 -0.15
13 0.18
14 -0.15
15 0.66
16 -0.15
2 -0.65
20 0.15
21 0.27
22 0.15
23 0.15
24 0.15
25 0.36
26 0.36
27 0.5
3 -0.57
4 0.03
5 -0.99
6 -0.18
7 0.18
9 0.33

>  <PUBCHEM_EFFECTIVE_ROTOR_COUNT>
3

>  <PUBCHEM_PHARMACOPHORE_FEATURES>
9
1 2 acceptor
1 3 acceptor
1 4 cation
1 4 donor
1 5 cation
1 5 donor
3 2 3 15 anion
5 4 6 8 10 11 rings
6 8 10 12 13 14 16 rings

>  <PUBCHEM_HEAVY_ATOM_COUNT>
16

>  <PUBCHEM_ATOM_DEF_STEREO_COUNT>
1

>  <PUBCHEM_ATOM_UDEF_STEREO_COUNT>
0

>  <PUBCHEM_BOND_DEF_STEREO_COUNT>
0

>  <PUBCHEM_BOND_UDEF_STEREO_COUNT>
0

>  <PUBCHEM_ISOTOPIC_ATOM_COUNT>
0

>  <PUBCHEM_COMPONENT_COUNT>
1

>  <PUBCHEM_CACTVS_TAUTO_COUNT>
1

>  <PUBCHEM_CONFORMER_ID>
002F06D000000001

>  <PUBCHEM_MMFF94_ENERGY>
21.1611

>  <PUBCHEM_FEATURE_SELFOVERLAP>
45.82

>  <PUBCHEM_SHAPE_FINGERPRINT>
11578080 2 17984388924466825000
124424 183 13686303465081884254
12553582 1 18411975828143526921
13221675 6 18412827958434911515
14576447 43 18340199790755604503
15375462 189 18409729534599286731
15775835 57 18334861610268107463
16945 1 18336255791022852248
18186145 218 18334289916019968276
20645476 183 18412826893626043687
21634736 98 18269552921791453590
22112679 90 18270106921196644770
232386 152 17775000210831931829
23388829 49 18336548222809405032
23402539 116 18410292511045120260
23402655 69 18335140847572397877
23559900 14 18339087094691280412
25 1 18186239536893781042
2748010 2 16032970615544397136
2871803 45 18192422198631418127
3312278 4 18412265042788448683
34934 24 18412260597376354768
528886 8 18407760339401988560
63268167 104 18335700520365318296
7364860 26 18058442273837337785
90525 40 18128818534492151421

>  <PUBCHEM_SHAPE_MULTIPOLES>
309.44
6.2
2.12
1.03
0.36
0.09
-0.23
0.5
-1.22
-0.4
0.18
0.26
0.17
-0.87

>  <PUBCHEM_SHAPE_SELFOVERLAP>
658.378

>  <PUBCHEM_SHAPE_VOLUME>
173.9

>  <PUBCHEM_COORDINATE_TYPE>
2
5
10

$$$$
3081936
 OpenBabel12092211553D

 27 28  0  0  1  0  0  0  0  0999 V2000
    4.3479    0.5117   -0.8201 Cl  0  0  0  0  0  0  0  0  0  0  0  0
    0.0126   -0.6247    3.0804 O   0  0  0  0  0  0  0  0  0  0  0  0
   -1.8271   -1.8552    2.5882 O   0  0  0  0  0  0  0  0  0  0  0  0
    1.4891    1.9059   -0.3135 N   0  0  0  0  0  0  0  0  0  0  0  0
   -1.2984    1.5537    3.3211 N   0  0  0  0  0  0  0  0  0  0  0  0
   -0.4072    1.0903    0.5027 C   0  0  0  0  0  0  0  0  0  0  0  0
   -1.8055    0.9898    0.9672 C   0  0  0  0  0  0  0  0  0  0  0  0
    0.5575    0.0444    0.4891 C   0  0  0  0  0  0  0  0  0  0  0  0
   -1.9564    0.5767    2.4497 C   0  0  1  0  0  0  0  0  0  0  0  0
    1.7382    0.5824   -0.0274 C   0  0  0  0  0  0  0  0  0  0  0  0
    0.1953    2.2221    0.0036 C   0  0  0  0  0  0  0  0  0  0  0  0
    0.5395   -1.3127    0.8678 C   0  0  0  0  0  0  0  0  0  0  0  0
    2.9065   -0.1717   -0.1847 C   0  0  0  0  0  0  0  0  0  0  0  0
    1.7006   -2.0794    0.7161 C   0  0  0  0  0  0  0  0  0  0  0  0
   -1.2880   -0.7625    2.7115 C   0  0  0  0  0  0  0  0  0  0  0  0
    2.8648   -1.5156    0.1977 C   0  0  0  0  0  0  0  0  0  0  0  0
   -2.3387    0.2629    0.3389 H   0  0  0  0  0  0  0  0  0  0  0  0
   -2.3102    1.9515    0.8003 H   0  0  0  0  0  0  0  0  0  0  0  0
   -3.0139    0.5119    2.7318 H   0  0  0  0  0  0  0  0  0  0  0  0
   -0.1789    3.2239   -0.1557 H   0  0  0  0  0  0  0  0  0  0  0  0
    2.1643    2.5499   -0.7016 H   0  0  0  0  0  0  0  0  0  0  0  0
   -0.3558   -1.7691    1.2795 H   0  0  0  0  0  0  0  0  0  0  0  0
    1.6927   -3.1263    1.0079 H   0  0  0  0  0  0  0  0  0  0  0  0
    3.7486   -2.1417    0.0947 H   0  0  0  0  0  0  0  0  0  0  0  0
   -1.4787    1.3172    4.2964 H   0  0  0  0  0  0  0  0  0  0  0  0
   -1.7104    2.4741    3.1721 H   0  0  0  0  0  0  0  0  0  0  0  0
    0.4406   -1.4926    3.2411 H   0  0  0  0  0  0  0  0  0  0  0  0
  1 13  1  0  0  0  0
  2 15  1  0  0  0  0
  2 27  1  0  0  0  0
  3 15  2  0  0  0  0
  4 10  1  0  0  0  0
  4 11  1  0  0  0  0
  4 21  1  0  0  0  0
  5  9  1  0  0  0  0
  5 25  1  0  0  0  0
  5 26  1  0  0  0  0
  6  7  1  0  0  0  0
  6  8  1  0  0  0  0
  6 11  2  0  0  0  0
  7  9  1  0  0  0  0
  7 17  1  0  0  0  0
  7 18  1  0  0  0  0
  8 10  2  0  0  0  0
  8 12  1  0  0  0  0
  9 15  1  0  0  0  0
  9 19  1  1  0  0  0
 10 13  1  0  0  0  0
 11 20  1  0  0  0  0
 12 14  2  0  0  0  0
 12 22  1  0  0  0  0
 13 16  2  0  0  0  0
 14 16  1  0  0  0  0
 14 23  1  0  0  0  0
 16 24  1  0  0  0  0
M  END
>  <PUBCHEM_COMPOUND_CID>
3081936

>  <PUBCHEM_CONFORMER_RMSD>
0.6

>  <PUBCHEM_CONFORMER_DIVERSEORDER>
1
16
18
12
6
14
13
15
5
9
11
7
3
17
8
4
2
10

>  <PUBCHEM_MMFF94_PARTIAL_CHARGES>
23
1 -0.18
10 -0.15
11 -0.3
12 -0.15
13 0.18
14 -0.15
15 0.66
16 -0.15
2 -0.65
20 0.15
21 0.27
22 0.15
23 0.15
24 0.15
25 0.36
26 0.36
27 0.5
3 -0.57
4 0.03
5 -0.99
6 -0.18
7 0.18
9 0.33

>  <PUBCHEM_EFFECTIVE_ROTOR_COUNT>
3

>  <PUBCHEM_PHARMACOPHORE_FEATURES>
9
1 2 acceptor
1 3 acceptor
1 4 cation
1 4 donor
1 5 cation
1 5 donor
3 2 3 15 anion
5 4 6 8 10 11 rings
6 8 10 12 13 14 16 rings

>  <PUBCHEM_HEAVY_ATOM_COUNT>
16

>  <PUBCHEM_ATOM_DEF_STEREO_COUNT>
1

>  <PUBCHEM_ATOM_UDEF_STEREO_COUNT>
0

>  <PUBCHEM_BOND_DEF_STEREO_COUNT>
0

>  <PUBCHEM_BOND_UDEF_STEREO_COUNT>
0

>  <PUBCHEM_ISOTOPIC_ATOM_COUNT>
0

>  <PUBCHEM_COMPONENT_COUNT>
1

>  <PUBCHEM_CACTVS_TAUTO_COUNT>
1

>  <PUBCHEM_CONFORMER_ID>
002F06D000000001

>  <PUBCHEM_MMFF94_ENERGY>
21.1611

>  <PUBCHEM_FEATURE_SELFOVERLAP>
45.82

>  <PUBCHEM_SHAPE_FINGERPRINT>
11578080 2 17984388924466825000
124424 183 13686303465081884254
12553582 1 18411975828143526921
13221675 6 18412827958434911515
14576447 43 18340199790755604503
15375462 189 18409729534599286731
15775835 57 18334861610268107463
16945 1 18336255791022852248
18186145 218 18334289916019968276
20645476 183 18412826893626043687
21634736 98 18269552921791453590
22112679 90 18270106921196644770
232386 152 17775000210831931829
23388829 49 18336548222809405032
23402539 116 18410292511045120260
23402655 69 18335140847572397877
23559900 14 18339087094691280412
25 1 18186239536893781042
2748010 2 16032970615544397136
2871803 45 18192422198631418127
3312278 4 18412265042788448683
34934 24 18412260597376354768
528886 8 18407760339401988560
63268167 104 18335700520365318296
7364860 26 18058442273837337785
90525 40 18128818534492151421

>  <PUBCHEM_SHAPE_MULTIPOLES>
309.44
6.2
2.12
1.03
0.36
0.09
-0.23
0.5
-1.22
-0.4
0.18
0.26
0.17
-0.87

>  <PUBCHEM_SHAPE_SELFOVERLAP>
658.378

>  <PUBCHEM_SHAPE_VOLUME>
173.9

>  <PUBCHEM_COORDINATE_TYPE>
2
5
10

$$$$
